Program Version,EnergyPlus, Version 8.8.0-7c3bbe4830, YMD=2017.10.30 16:12,IDD_Version 8.8.0
   ************* IDF Context for following error/warning message:
   ************* Note -- lines truncated at 300 characters, if necessary...
   *************    260 BuildingSurface:Detailed,
   ************* indicated Name=diagonal-interior-wall-floor-1-space-1
   ************* Only last 3 lines before error line shown.....
   *************    261   diagonal-interior-wall-floor-1-space-1, !- Name
   *************    262   Wall,                                   !- Surface Type
   *************    263   ,                                       !- Construction Name
   ** Severe  ** IP: IDF line~263 Error detected in Object=BUILDINGSURFACE:DETAILED, name=DIAGONAL-INTERIOR-WALL-FLOOR-1-SPACE-1
   **   ~~~   ** Field [Construction Name] is required but was blank
   ************* IDF Context for following error/warning message:
   ************* Note -- lines truncated at 300 characters, if necessary...
   *************    276 BuildingSurface:Detailed,
   ************* indicated Name=diagonal-interior-wall-floor-1-space-4 Reversed
   ************* Only last 3 lines before error line shown.....
   *************    277   diagonal-interior-wall-floor-1-space-4 Reversed, !- Name
   *************    278   Wall,                                   !- Surface Type
   *************    279   ,                                       !- Construction Name
   ** Severe  ** IP: IDF line~279 Error detected in Object=BUILDINGSURFACE:DETAILED, name=DIAGONAL-INTERIOR-WALL-FLOOR-1-SPACE-4 REVERSED
   **   ~~~   ** Field [Construction Name] is required but was blank
   ************* IDF Context for following error/warning message:
   ************* Note -- lines truncated at 300 characters, if necessary...
   *************    292 BuildingSurface:Detailed,
   ************* indicated Name=exterior-wall-floor-1-space-1
   ************* Only last 3 lines before error line shown.....
   *************    293   exterior-wall-floor-1-space-1,          !- Name
   *************    294   Wall,                                   !- Surface Type
   *************    295   ,                                       !- Construction Name
   ** Severe  ** IP: IDF line~295 Error detected in Object=BUILDINGSURFACE:DETAILED, name=EXTERIOR-WALL-FLOOR-1-SPACE-1
   **   ~~~   ** Field [Construction Name] is required but was blank
   ************* IDF Context for following error/warning message:
   ************* Note -- lines truncated at 300 characters, if necessary...
   *************    308 FenestrationSurface:Detailed,
   ************* indicated Name=bw-opening-4
   ************* Only last 3 lines before error line shown.....
   *************    309   bw-opening-4,                           !- Name
   *************    310   Window,                                 !- Surface Type
   *************    311   ,                                       !- Construction Name
   ** Severe  ** IP: IDF line~311 Error detected in Object=FENESTRATIONSURFACE:DETAILED, name=BW-OPENING-4
   **   ~~~   ** Field [Construction Name] is required but was blank
   ************* IDF Context for following error/warning message:
   ************* Note -- lines truncated at 300 characters, if necessary...
   *************    324 BuildingSurface:Detailed,
   ************* indicated Name=floor-1-space-1
   ************* Only last 3 lines before error line shown.....
   *************    325   floor-1-space-1,                        !- Name
   *************    326   Floor,                                  !- Surface Type
   *************    327   ,                                       !- Construction Name
   ** Severe  ** IP: IDF line~327 Error detected in Object=BUILDINGSURFACE:DETAILED, name=FLOOR-1-SPACE-1
   **   ~~~   ** Field [Construction Name] is required but was blank
   ************* IDF Context for following error/warning message:
   ************* Note -- lines truncated at 300 characters, if necessary...
   *************    340 BuildingSurface:Detailed,
   ************* indicated Name=interior-wall-floor-1-space-1
   ************* Only last 3 lines before error line shown.....
   *************    341   interior-wall-floor-1-space-1,          !- Name
   *************    342   Wall,                                   !- Surface Type
   *************    343   ,                                       !- Construction Name
   ** Severe  ** IP: IDF line~343 Error detected in Object=BUILDINGSURFACE:DETAILED, name=INTERIOR-WALL-FLOOR-1-SPACE-1
   **   ~~~   ** Field [Construction Name] is required but was blank
   ************* IDF Context for following error/warning message:
   ************* Note -- lines truncated at 300 characters, if necessary...
   *************    356 BuildingSurface:Detailed,
   ************* indicated Name=roof-floor-1-space-1
   ************* Only last 3 lines before error line shown.....
   *************    357   roof-floor-1-space-1,                   !- Name
   *************    358   Roof,                                   !- Surface Type
   *************    359   ,                                       !- Construction Name
   ** Severe  ** IP: IDF line~359 Error detected in Object=BUILDINGSURFACE:DETAILED, name=ROOF-FLOOR-1-SPACE-1
   **   ~~~   ** Field [Construction Name] is required but was blank
   ************* IDF Context for following error/warning message:
   ************* Note -- lines truncated at 300 characters, if necessary...
   *************    386 BuildingSurface:Detailed,
   ************* indicated Name=diagonal-interior-wall-floor-1-space-1 Reversed
   ************* Only last 3 lines before error line shown.....
   *************    387   diagonal-interior-wall-floor-1-space-1 Reversed, !- Name
   *************    388   Wall,                                   !- Surface Type
   *************    389   ,                                       !- Construction Name
   ** Severe  ** IP: IDF line~389 Error detected in Object=BUILDINGSURFACE:DETAILED, name=DIAGONAL-INTERIOR-WALL-FLOOR-1-SPACE-1 REVERSED
   **   ~~~   ** Field [Construction Name] is required but was blank
   ************* IDF Context for following error/warning message:
   ************* Note -- lines truncated at 300 characters, if necessary...
   *************    402 BuildingSurface:Detailed,
   ************* indicated Name=diagonal-interior-wall-floor-1-space-2
   ************* Only last 3 lines before error line shown.....
   *************    403   diagonal-interior-wall-floor-1-space-2, !- Name
   *************    404   Wall,                                   !- Surface Type
   *************    405   ,                                       !- Construction Name
   ** Severe  ** IP: IDF line~405 Error detected in Object=BUILDINGSURFACE:DETAILED, name=DIAGONAL-INTERIOR-WALL-FLOOR-1-SPACE-2
   **   ~~~   ** Field [Construction Name] is required but was blank
   ************* IDF Context for following error/warning message:
   ************* Note -- lines truncated at 300 characters, if necessary...
   *************    418 BuildingSurface:Detailed,
   ************* indicated Name=exterior-wall-floor-1-space-2
   ************* Only last 3 lines before error line shown.....
   *************    419   exterior-wall-floor-1-space-2,          !- Name
   *************    420   Wall,                                   !- Surface Type
   *************    421   ,                                       !- Construction Name
   ** Severe  ** IP: IDF line~421 Error detected in Object=BUILDINGSURFACE:DETAILED, name=EXTERIOR-WALL-FLOOR-1-SPACE-2
   **   ~~~   ** Field [Construction Name] is required but was blank
   ************* IDF Context for following error/warning message:
   ************* Note -- lines truncated at 300 characters, if necessary...
   *************    434 FenestrationSurface:Detailed,
   ************* indicated Name=bw-opening-9
   ************* Only last 3 lines before error line shown.....
   *************    435   bw-opening-9,                           !- Name
   *************    436   Window,                                 !- Surface Type
   *************    437   ,                                       !- Construction Name
   ** Severe  ** IP: IDF line~437 Error detected in Object=FENESTRATIONSURFACE:DETAILED, name=BW-OPENING-9
   **   ~~~   ** Field [Construction Name] is required but was blank
   ************* IDF Context for following error/warning message:
   ************* Note -- lines truncated at 300 characters, if necessary...
   *************    450 BuildingSurface:Detailed,
   ************* indicated Name=floor-1-space-2
   ************* Only last 3 lines before error line shown.....
   *************    451   floor-1-space-2,                        !- Name
   *************    452   Floor,                                  !- Surface Type
   *************    453   ,                                       !- Construction Name
   ** Severe  ** IP: IDF line~453 Error detected in Object=BUILDINGSURFACE:DETAILED, name=FLOOR-1-SPACE-2
   **   ~~~   ** Field [Construction Name] is required but was blank
   ************* IDF Context for following error/warning message:
   ************* Note -- lines truncated at 300 characters, if necessary...
   *************    466 BuildingSurface:Detailed,
   ************* indicated Name=interior-wall-floor-1-space-2
   ************* Only last 3 lines before error line shown.....
   *************    467   interior-wall-floor-1-space-2,          !- Name
   *************    468   Wall,                                   !- Surface Type
   *************    469   ,                                       !- Construction Name
   ** Severe  ** IP: IDF line~469 Error detected in Object=BUILDINGSURFACE:DETAILED, name=INTERIOR-WALL-FLOOR-1-SPACE-2
   **   ~~~   ** Field [Construction Name] is required but was blank
   ************* IDF Context for following error/warning message:
   ************* Note -- lines truncated at 300 characters, if necessary...
   *************    482 BuildingSurface:Detailed,
   ************* indicated Name=roof-floor-1-space-2
   ************* Only last 3 lines before error line shown.....
   *************    483   roof-floor-1-space-2,                   !- Name
   *************    484   Roof,                                   !- Surface Type
   *************    485   ,                                       !- Construction Name
   ** Severe  ** IP: IDF line~485 Error detected in Object=BUILDINGSURFACE:DETAILED, name=ROOF-FLOOR-1-SPACE-2
   **   ~~~   ** Field [Construction Name] is required but was blank
   ************* IDF Context for following error/warning message:
   ************* Note -- lines truncated at 300 characters, if necessary...
   *************    512 BuildingSurface:Detailed,
   ************* indicated Name=diagonal-interior-wall-floor-1-space-2 Reversed
   ************* Only last 3 lines before error line shown.....
   *************    513   diagonal-interior-wall-floor-1-space-2 Reversed, !- Name
   *************    514   Wall,                                   !- Surface Type
   *************    515   ,                                       !- Construction Name
   ** Severe  ** IP: IDF line~515 Error detected in Object=BUILDINGSURFACE:DETAILED, name=DIAGONAL-INTERIOR-WALL-FLOOR-1-SPACE-2 REVERSED
   **   ~~~   ** Field [Construction Name] is required but was blank
   ************* IDF Context for following error/warning message:
   ************* Note -- lines truncated at 300 characters, if necessary...
   *************    528 BuildingSurface:Detailed,
   ************* indicated Name=diagonal-interior-wall-floor-1-space-3
   ************* Only last 3 lines before error line shown.....
   *************    529   diagonal-interior-wall-floor-1-space-3, !- Name
   *************    530   Wall,                                   !- Surface Type
   *************    531   ,                                       !- Construction Name
   ** Severe  ** IP: IDF line~531 Error detected in Object=BUILDINGSURFACE:DETAILED, name=DIAGONAL-INTERIOR-WALL-FLOOR-1-SPACE-3
   **   ~~~   ** Field [Construction Name] is required but was blank
   ************* IDF Context for following error/warning message:
   ************* Note -- lines truncated at 300 characters, if necessary...
   *************    544 BuildingSurface:Detailed,
   ************* indicated Name=exterior-wall-floor-1-space-3
   ************* Only last 3 lines before error line shown.....
   *************    545   exterior-wall-floor-1-space-3,          !- Name
   *************    546   Wall,                                   !- Surface Type
   *************    547   ,                                       !- Construction Name
   ** Severe  ** IP: IDF line~547 Error detected in Object=BUILDINGSURFACE:DETAILED, name=EXTERIOR-WALL-FLOOR-1-SPACE-3
   **   ~~~   ** Field [Construction Name] is required but was blank
   ************* IDF Context for following error/warning message:
   ************* Note -- lines truncated at 300 characters, if necessary...
   *************    560 FenestrationSurface:Detailed,
   ************* indicated Name=bw-opening-14
   ************* Only last 3 lines before error line shown.....
   *************    561   bw-opening-14,                          !- Name
   *************    562   Window,                                 !- Surface Type
   *************    563   ,                                       !- Construction Name
   ** Severe  ** IP: IDF line~563 Error detected in Object=FENESTRATIONSURFACE:DETAILED, name=BW-OPENING-14
   **   ~~~   ** Field [Construction Name] is required but was blank
   ************* IDF Context for following error/warning message:
   ************* Note -- lines truncated at 300 characters, if necessary...
   *************    576 BuildingSurface:Detailed,
   ************* indicated Name=floor-1-space-3
   ************* Only last 3 lines before error line shown.....
   *************    577   floor-1-space-3,                        !- Name
   *************    578   Floor,                                  !- Surface Type
   *************    579   ,                                       !- Construction Name
   ** Severe  ** IP: IDF line~579 Error detected in Object=BUILDINGSURFACE:DETAILED, name=FLOOR-1-SPACE-3
   **   ~~~   ** Field [Construction Name] is required but was blank
   ************* IDF Context for following error/warning message:
   ************* Note -- lines truncated at 300 characters, if necessary...
   *************    592 BuildingSurface:Detailed,
   ************* indicated Name=interior-wall-floor-1-space-3
   ************* Only last 3 lines before error line shown.....
   *************    593   interior-wall-floor-1-space-3,          !- Name
   *************    594   Wall,                                   !- Surface Type
   *************    595   ,                                       !- Construction Name
   ** Severe  ** IP: IDF line~595 Error detected in Object=BUILDINGSURFACE:DETAILED, name=INTERIOR-WALL-FLOOR-1-SPACE-3
   **   ~~~   ** Field [Construction Name] is required but was blank
   ************* IDF Context for following error/warning message:
   ************* Note -- lines truncated at 300 characters, if necessary...
   *************    608 BuildingSurface:Detailed,
   ************* indicated Name=roof-floor-1-space-3
   ************* Only last 3 lines before error line shown.....
   *************    609   roof-floor-1-space-3,                   !- Name
   *************    610   Roof,                                   !- Surface Type
   *************    611   ,                                       !- Construction Name
   ** Severe  ** IP: IDF line~611 Error detected in Object=BUILDINGSURFACE:DETAILED, name=ROOF-FLOOR-1-SPACE-3
   **   ~~~   ** Field [Construction Name] is required but was blank
   ************* IDF Context for following error/warning message:
   ************* Note -- lines truncated at 300 characters, if necessary...
   *************    638 BuildingSurface:Detailed,
   ************* indicated Name=diagonal-interior-wall-floor-1-space-3 Reversed
   ************* Only last 3 lines before error line shown.....
   *************    639   diagonal-interior-wall-floor-1-space-3 Reversed, !- Name
   *************    640   Wall,                                   !- Surface Type
   *************    641   ,                                       !- Construction Name
   ** Severe  ** IP: IDF line~641 Error detected in Object=BUILDINGSURFACE:DETAILED, name=DIAGONAL-INTERIOR-WALL-FLOOR-1-SPACE-3 REVERSED
   **   ~~~   ** Field [Construction Name] is required but was blank
   ************* IDF Context for following error/warning message:
   ************* Note -- lines truncated at 300 characters, if necessary...
   *************    654 BuildingSurface:Detailed,
   ************* indicated Name=diagonal-interior-wall-floor-1-space-4
   ************* Only last 3 lines before error line shown.....
   *************    655   diagonal-interior-wall-floor-1-space-4, !- Name
   *************    656   Wall,                                   !- Surface Type
   *************    657   ,                                       !- Construction Name
   ** Severe  ** IP: IDF line~657 Error detected in Object=BUILDINGSURFACE:DETAILED, name=DIAGONAL-INTERIOR-WALL-FLOOR-1-SPACE-4
   **   ~~~   ** Field [Construction Name] is required but was blank
   ************* IDF Context for following error/warning message:
   ************* Note -- lines truncated at 300 characters, if necessary...
   *************    670 BuildingSurface:Detailed,
   ************* indicated Name=exterior-wall-floor-1-space-4
   ************* Only last 3 lines before error line shown.....
   *************    671   exterior-wall-floor-1-space-4,          !- Name
   *************    672   Wall,                                   !- Surface Type
   *************    673   ,                                       !- Construction Name
   ** Severe  ** IP: IDF line~673 Error detected in Object=BUILDINGSURFACE:DETAILED, name=EXTERIOR-WALL-FLOOR-1-SPACE-4
   **   ~~~   ** Field [Construction Name] is required but was blank
   ************* IDF Context for following error/warning message:
   ************* Note -- lines truncated at 300 characters, if necessary...
   *************    686 FenestrationSurface:Detailed,
   ************* indicated Name=bw-opening-19
   ************* Only last 3 lines before error line shown.....
   *************    687   bw-opening-19,                          !- Name
   *************    688   Window,                                 !- Surface Type
   *************    689   ,                                       !- Construction Name
   ** Severe  ** IP: IDF line~689 Error detected in Object=FENESTRATIONSURFACE:DETAILED, name=BW-OPENING-19
   **   ~~~   ** Field [Construction Name] is required but was blank
   ************* IDF Context for following error/warning message:
   ************* Note -- lines truncated at 300 characters, if necessary...
   *************    702 BuildingSurface:Detailed,
   ************* indicated Name=floor-1-space-4
   ************* Only last 3 lines before error line shown.....
   *************    703   floor-1-space-4,                        !- Name
   *************    704   Floor,                                  !- Surface Type
   *************    705   ,                                       !- Construction Name
   ** Severe  ** IP: IDF line~705 Error detected in Object=BUILDINGSURFACE:DETAILED, name=FLOOR-1-SPACE-4
   **   ~~~   ** Field [Construction Name] is required but was blank
   ************* IDF Context for following error/warning message:
   ************* Note -- lines truncated at 300 characters, if necessary...
   *************    718 BuildingSurface:Detailed,
   ************* indicated Name=interior-wall-floor-1-space-4
   ************* Only last 3 lines before error line shown.....
   *************    719   interior-wall-floor-1-space-4,          !- Name
   *************    720   Wall,                                   !- Surface Type
   *************    721   ,                                       !- Construction Name
   ** Severe  ** IP: IDF line~721 Error detected in Object=BUILDINGSURFACE:DETAILED, name=INTERIOR-WALL-FLOOR-1-SPACE-4
   **   ~~~   ** Field [Construction Name] is required but was blank
   ************* IDF Context for following error/warning message:
   ************* Note -- lines truncated at 300 characters, if necessary...
   *************    734 BuildingSurface:Detailed,
   ************* indicated Name=roof-floor-1-space-4
   ************* Only last 3 lines before error line shown.....
   *************    735   roof-floor-1-space-4,                   !- Name
   *************    736   Roof,                                   !- Surface Type
   *************    737   ,                                       !- Construction Name
   ** Severe  ** IP: IDF line~737 Error detected in Object=BUILDINGSURFACE:DETAILED, name=ROOF-FLOOR-1-SPACE-4
   **   ~~~   ** Field [Construction Name] is required but was blank
   ************* IDF Context for following error/warning message:
   ************* Note -- lines truncated at 300 characters, if necessary...
   *************    764 BuildingSurface:Detailed,
   ************* indicated Name=interior-wall-floor-1-space-1 Reversed
   ************* Only last 3 lines before error line shown.....
   *************    765   interior-wall-floor-1-space-1 Reversed, !- Name
   *************    766   Wall,                                   !- Surface Type
   *************    767   ,                                       !- Construction Name
   ** Severe  ** IP: IDF line~767 Error detected in Object=BUILDINGSURFACE:DETAILED, name=INTERIOR-WALL-FLOOR-1-SPACE-1 REVERSED
   **   ~~~   ** Field [Construction Name] is required but was blank
   ************* IDF Context for following error/warning message:
   ************* Note -- lines truncated at 300 characters, if necessary...
   *************    780 BuildingSurface:Detailed,
   ************* indicated Name=interior-wall-floor-1-space-2 Reversed
   ************* Only last 3 lines before error line shown.....
   *************    781   interior-wall-floor-1-space-2 Reversed, !- Name
   *************    782   Wall,                                   !- Surface Type
   *************    783   ,                                       !- Construction Name
   ** Severe  ** IP: IDF line~783 Error detected in Object=BUILDINGSURFACE:DETAILED, name=INTERIOR-WALL-FLOOR-1-SPACE-2 REVERSED
   **   ~~~   ** Field [Construction Name] is required but was blank
   ************* IDF Context for following error/warning message:
   ************* Note -- lines truncated at 300 characters, if necessary...
   *************    796 BuildingSurface:Detailed,
   ************* indicated Name=interior-wall-floor-1-space-3 Reversed
   ************* Only last 3 lines before error line shown.....
   *************    797   interior-wall-floor-1-space-3 Reversed, !- Name
   *************    798   Wall,                                   !- Surface Type
   *************    799   ,                                       !- Construction Name
   ** Severe  ** IP: IDF line~799 Error detected in Object=BUILDINGSURFACE:DETAILED, name=INTERIOR-WALL-FLOOR-1-SPACE-3 REVERSED
   **   ~~~   ** Field [Construction Name] is required but was blank
   ************* IDF Context for following error/warning message:
   ************* Note -- lines truncated at 300 characters, if necessary...
   *************    812 BuildingSurface:Detailed,
   ************* indicated Name=interior-wall-floor-1-space-4 Reversed
   ************* Only last 3 lines before error line shown.....
   *************    813   interior-wall-floor-1-space-4 Reversed, !- Name
   *************    814   Wall,                                   !- Surface Type
   *************    815   ,                                       !- Construction Name
   ** Severe  ** IP: IDF line~815 Error detected in Object=BUILDINGSURFACE:DETAILED, name=INTERIOR-WALL-FLOOR-1-SPACE-4 REVERSED
   **   ~~~   ** Field [Construction Name] is required but was blank
   ************* IDF Context for following error/warning message:
   ************* Note -- lines truncated at 300 characters, if necessary...
   *************    828 BuildingSurface:Detailed,
   ************* indicated Name=slab-floor-0
   ************* Only last 3 lines before error line shown.....
   *************    829   slab-floor-0,                           !- Name
   *************    830   Floor,                                  !- Surface Type
   *************    831   ,                                       !- Construction Name
   ** Severe  ** IP: IDF line~831 Error detected in Object=BUILDINGSURFACE:DETAILED, name=SLAB-FLOOR-0
   **   ~~~   ** Field [Construction Name] is required but was blank
   ************* IDF Context for following error/warning message:
   ************* Note -- lines truncated at 300 characters, if necessary...
   *************    844 BuildingSurface:Detailed,
   ************* indicated Name={227a60e5-ba1b-48ce-badd-899dd210e3a8}
   ************* Only last 3 lines before error line shown.....
   *************    845   {227a60e5-ba1b-48ce-badd-899dd210e3a8}, !- Name
   *************    846   Roof,                                   !- Surface Type
   *************    847   ,                                       !- Construction Name
   ** Severe  ** IP: IDF line~847 Error detected in Object=BUILDINGSURFACE:DETAILED, name={227A60E5-BA1B-48CE-BADD-899DD210E3A8}
   **   ~~~   ** Field [Construction Name] is required but was blank
   ** Severe  ** IP: Blank "required" fields found in input
   ** Severe  ** IP: Out of "range" values and/or blank required fields found in input
   **  Fatal  ** IP: Errors occurred on processing IDF file. Preceding condition(s) cause termination.
   ...Summary of Errors that led to program termination:
   ..... Reference severe error count=36
   ..... Last severe error=IP: Out of "range" values and/or blank required fields found in input
   ************* Warning:  Node connection errors not checked - most system input has not been read (see previous warning).
   ************* Fatal error -- final processing.  Program exited before simulations began.  See previous error messages.
   ************* EnergyPlus Warmup Error Summary. During Warmup: 0 Warning; 0 Severe Errors.
   ************* EnergyPlus Sizing Error Summary. During Sizing: 0 Warning; 0 Severe Errors.
   ************* EnergyPlus Terminated--Fatal Error Detected. 0 Warning; 36 Severe Errors; Elapsed Time=00hr 00min  0.25sec
