Program Version,EnergyPlus, Version 8.8.0-7c3bbe4830, YMD=2017.10.30 15:47,IDD_Version 8.8.0
   ************* IDF Context for following error/warning message:
   ************* Note -- lines truncated at 300 characters, if necessary...
   *************   1088 BuildingSurface:Detailed,
   ************* indicated Name=diagonal-interior-wall-floor-1-space-1
   ************* Only last 3 lines before error line shown.....
   *************   1089   diagonal-interior-wall-floor-1-space-1, !- Name
   *************   1090   Wall,                                   !- Surface Type
   *************   1091   ,                                       !- Construction Name
   ** Severe  ** IP: IDF line~1091 Error detected in Object=BUILDINGSURFACE:DETAILED, name=DIAGONAL-INTERIOR-WALL-FLOOR-1-SPACE-1
   **   ~~~   ** Field [Construction Name] is required but was blank
   ************* IDF Context for following error/warning message:
   ************* Note -- lines truncated at 300 characters, if necessary...
   *************   1104 BuildingSurface:Detailed,
   ************* indicated Name=diagonal-interior-wall-floor-1-space-12 Reversed
   ************* Only last 3 lines before error line shown.....
   *************   1105   diagonal-interior-wall-floor-1-space-12 Reversed, !- Name
   *************   1106   Wall,                                   !- Surface Type
   *************   1107   ,                                       !- Construction Name
   ** Severe  ** IP: IDF line~1107 Error detected in Object=BUILDINGSURFACE:DETAILED, name=DIAGONAL-INTERIOR-WALL-FLOOR-1-SPACE-12 REVERSED
   **   ~~~   ** Field [Construction Name] is required but was blank
   ************* IDF Context for following error/warning message:
   ************* Note -- lines truncated at 300 characters, if necessary...
   *************   1120 BuildingSurface:Detailed,
   ************* indicated Name=diagonal-interior-wall-floor-2-space-1 Reversed
   ************* Only last 3 lines before error line shown.....
   *************   1121   diagonal-interior-wall-floor-2-space-1 Reversed, !- Name
   *************   1122   Wall,                                   !- Surface Type
   *************   1123   ,                                       !- Construction Name
   ** Severe  ** IP: IDF line~1123 Error detected in Object=BUILDINGSURFACE:DETAILED, name=DIAGONAL-INTERIOR-WALL-FLOOR-2-SPACE-1 REVERSED
   **   ~~~   ** Field [Construction Name] is required but was blank
   ************* IDF Context for following error/warning message:
   ************* Note -- lines truncated at 300 characters, if necessary...
   *************   1136 BuildingSurface:Detailed,
   ************* indicated Name=diagonal-interior-wall-floor-2-space-10 Reversed
   ************* Only last 3 lines before error line shown.....
   *************   1137   diagonal-interior-wall-floor-2-space-10 Reversed, !- Name
   *************   1138   Wall,                                   !- Surface Type
   *************   1139   ,                                       !- Construction Name
   ** Severe  ** IP: IDF line~1139 Error detected in Object=BUILDINGSURFACE:DETAILED, name=DIAGONAL-INTERIOR-WALL-FLOOR-2-SPACE-10 REVERSED
   **   ~~~   ** Field [Construction Name] is required but was blank
   ************* IDF Context for following error/warning message:
   ************* Note -- lines truncated at 300 characters, if necessary...
   *************   1152 BuildingSurface:Detailed,
   ************* indicated Name=diagonal-interior-wall-floor-2-space-11 Reversed
   ************* Only last 3 lines before error line shown.....
   *************   1153   diagonal-interior-wall-floor-2-space-11 Reversed, !- Name
   *************   1154   Wall,                                   !- Surface Type
   *************   1155   ,                                       !- Construction Name
   ** Severe  ** IP: IDF line~1155 Error detected in Object=BUILDINGSURFACE:DETAILED, name=DIAGONAL-INTERIOR-WALL-FLOOR-2-SPACE-11 REVERSED
   **   ~~~   ** Field [Construction Name] is required but was blank
   ************* IDF Context for following error/warning message:
   ************* Note -- lines truncated at 300 characters, if necessary...
   *************   1168 BuildingSurface:Detailed,
   ************* indicated Name=diagonal-interior-wall-floor-2-space-12 Reversed
   ************* Only last 3 lines before error line shown.....
   *************   1169   diagonal-interior-wall-floor-2-space-12 Reversed, !- Name
   *************   1170   Wall,                                   !- Surface Type
   *************   1171   ,                                       !- Construction Name
   ** Severe  ** IP: IDF line~1171 Error detected in Object=BUILDINGSURFACE:DETAILED, name=DIAGONAL-INTERIOR-WALL-FLOOR-2-SPACE-12 REVERSED
   **   ~~~   ** Field [Construction Name] is required but was blank
   ************* IDF Context for following error/warning message:
   ************* Note -- lines truncated at 300 characters, if necessary...
   *************   1184 BuildingSurface:Detailed,
   ************* indicated Name=diagonal-interior-wall-floor-2-space-2 Reversed
   ************* Only last 3 lines before error line shown.....
   *************   1185   diagonal-interior-wall-floor-2-space-2 Reversed, !- Name
   *************   1186   Wall,                                   !- Surface Type
   *************   1187   ,                                       !- Construction Name
   ** Severe  ** IP: IDF line~1187 Error detected in Object=BUILDINGSURFACE:DETAILED, name=DIAGONAL-INTERIOR-WALL-FLOOR-2-SPACE-2 REVERSED
   **   ~~~   ** Field [Construction Name] is required but was blank
   ************* IDF Context for following error/warning message:
   ************* Note -- lines truncated at 300 characters, if necessary...
   *************   1200 BuildingSurface:Detailed,
   ************* indicated Name=diagonal-interior-wall-floor-2-space-3 Reversed
   ************* Only last 3 lines before error line shown.....
   *************   1201   diagonal-interior-wall-floor-2-space-3 Reversed, !- Name
   *************   1202   Wall,                                   !- Surface Type
   *************   1203   ,                                       !- Construction Name
   ** Severe  ** IP: IDF line~1203 Error detected in Object=BUILDINGSURFACE:DETAILED, name=DIAGONAL-INTERIOR-WALL-FLOOR-2-SPACE-3 REVERSED
   **   ~~~   ** Field [Construction Name] is required but was blank
   ************* IDF Context for following error/warning message:
   ************* Note -- lines truncated at 300 characters, if necessary...
   *************   1216 BuildingSurface:Detailed,
   ************* indicated Name=diagonal-interior-wall-floor-2-space-4 Reversed
   ************* Only last 3 lines before error line shown.....
   *************   1217   diagonal-interior-wall-floor-2-space-4 Reversed, !- Name
   *************   1218   Wall,                                   !- Surface Type
   *************   1219   ,                                       !- Construction Name
   ** Severe  ** IP: IDF line~1219 Error detected in Object=BUILDINGSURFACE:DETAILED, name=DIAGONAL-INTERIOR-WALL-FLOOR-2-SPACE-4 REVERSED
   **   ~~~   ** Field [Construction Name] is required but was blank
   ************* IDF Context for following error/warning message:
   ************* Note -- lines truncated at 300 characters, if necessary...
   *************   1232 BuildingSurface:Detailed,
   ************* indicated Name=diagonal-interior-wall-floor-2-space-5 Reversed
   ************* Only last 3 lines before error line shown.....
   *************   1233   diagonal-interior-wall-floor-2-space-5 Reversed, !- Name
   *************   1234   Wall,                                   !- Surface Type
   *************   1235   ,                                       !- Construction Name
   ** Severe  ** IP: IDF line~1235 Error detected in Object=BUILDINGSURFACE:DETAILED, name=DIAGONAL-INTERIOR-WALL-FLOOR-2-SPACE-5 REVERSED
   **   ~~~   ** Field [Construction Name] is required but was blank
   ************* IDF Context for following error/warning message:
   ************* Note -- lines truncated at 300 characters, if necessary...
   *************   1248 BuildingSurface:Detailed,
   ************* indicated Name=diagonal-interior-wall-floor-2-space-6 Reversed
   ************* Only last 3 lines before error line shown.....
   *************   1249   diagonal-interior-wall-floor-2-space-6 Reversed, !- Name
   *************   1250   Wall,                                   !- Surface Type
   *************   1251   ,                                       !- Construction Name
   ** Severe  ** IP: IDF line~1251 Error detected in Object=BUILDINGSURFACE:DETAILED, name=DIAGONAL-INTERIOR-WALL-FLOOR-2-SPACE-6 REVERSED
   **   ~~~   ** Field [Construction Name] is required but was blank
   ************* IDF Context for following error/warning message:
   ************* Note -- lines truncated at 300 characters, if necessary...
   *************   1264 BuildingSurface:Detailed,
   ************* indicated Name=diagonal-interior-wall-floor-2-space-7 Reversed
   ************* Only last 3 lines before error line shown.....
   *************   1265   diagonal-interior-wall-floor-2-space-7 Reversed, !- Name
   *************   1266   Wall,                                   !- Surface Type
   *************   1267   ,                                       !- Construction Name
   ** Severe  ** IP: IDF line~1267 Error detected in Object=BUILDINGSURFACE:DETAILED, name=DIAGONAL-INTERIOR-WALL-FLOOR-2-SPACE-7 REVERSED
   **   ~~~   ** Field [Construction Name] is required but was blank
   ************* IDF Context for following error/warning message:
   ************* Note -- lines truncated at 300 characters, if necessary...
   *************   1280 BuildingSurface:Detailed,
   ************* indicated Name=diagonal-interior-wall-floor-2-space-8 Reversed
   ************* Only last 3 lines before error line shown.....
   *************   1281   diagonal-interior-wall-floor-2-space-8 Reversed, !- Name
   *************   1282   Wall,                                   !- Surface Type
   *************   1283   ,                                       !- Construction Name
   ** Severe  ** IP: IDF line~1283 Error detected in Object=BUILDINGSURFACE:DETAILED, name=DIAGONAL-INTERIOR-WALL-FLOOR-2-SPACE-8 REVERSED
   **   ~~~   ** Field [Construction Name] is required but was blank
   ************* IDF Context for following error/warning message:
   ************* Note -- lines truncated at 300 characters, if necessary...
   *************   1296 BuildingSurface:Detailed,
   ************* indicated Name=diagonal-interior-wall-floor-2-space-9 Reversed
   ************* Only last 3 lines before error line shown.....
   *************   1297   diagonal-interior-wall-floor-2-space-9 Reversed, !- Name
   *************   1298   Wall,                                   !- Surface Type
   *************   1299   ,                                       !- Construction Name
   ** Severe  ** IP: IDF line~1299 Error detected in Object=BUILDINGSURFACE:DETAILED, name=DIAGONAL-INTERIOR-WALL-FLOOR-2-SPACE-9 REVERSED
   **   ~~~   ** Field [Construction Name] is required but was blank
   ************* IDF Context for following error/warning message:
   ************* Note -- lines truncated at 300 characters, if necessary...
   *************   1312 BuildingSurface:Detailed,
   ************* indicated Name=diagonal-interior-wall-floor-3-space-1 Reversed
   ************* Only last 3 lines before error line shown.....
   *************   1313   diagonal-interior-wall-floor-3-space-1 Reversed, !- Name
   *************   1314   Wall,                                   !- Surface Type
   *************   1315   ,                                       !- Construction Name
   ** Severe  ** IP: IDF line~1315 Error detected in Object=BUILDINGSURFACE:DETAILED, name=DIAGONAL-INTERIOR-WALL-FLOOR-3-SPACE-1 REVERSED
   **   ~~~   ** Field [Construction Name] is required but was blank
   ************* IDF Context for following error/warning message:
   ************* Note -- lines truncated at 300 characters, if necessary...
   *************   1328 BuildingSurface:Detailed,
   ************* indicated Name=diagonal-interior-wall-floor-3-space-10 Reversed
   ************* Only last 3 lines before error line shown.....
   *************   1329   diagonal-interior-wall-floor-3-space-10 Reversed, !- Name
   *************   1330   Wall,                                   !- Surface Type
   *************   1331   ,                                       !- Construction Name
   ** Severe  ** IP: IDF line~1331 Error detected in Object=BUILDINGSURFACE:DETAILED, name=DIAGONAL-INTERIOR-WALL-FLOOR-3-SPACE-10 REVERSED
   **   ~~~   ** Field [Construction Name] is required but was blank
   ************* IDF Context for following error/warning message:
   ************* Note -- lines truncated at 300 characters, if necessary...
   *************   1344 BuildingSurface:Detailed,
   ************* indicated Name=diagonal-interior-wall-floor-3-space-11 Reversed
   ************* Only last 3 lines before error line shown.....
   *************   1345   diagonal-interior-wall-floor-3-space-11 Reversed, !- Name
   *************   1346   Wall,                                   !- Surface Type
   *************   1347   ,                                       !- Construction Name
   ** Severe  ** IP: IDF line~1347 Error detected in Object=BUILDINGSURFACE:DETAILED, name=DIAGONAL-INTERIOR-WALL-FLOOR-3-SPACE-11 REVERSED
   **   ~~~   ** Field [Construction Name] is required but was blank
   ************* IDF Context for following error/warning message:
   ************* Note -- lines truncated at 300 characters, if necessary...
   *************   1360 BuildingSurface:Detailed,
   ************* indicated Name=diagonal-interior-wall-floor-3-space-12 Reversed
   ************* Only last 3 lines before error line shown.....
   *************   1361   diagonal-interior-wall-floor-3-space-12 Reversed, !- Name
   *************   1362   Wall,                                   !- Surface Type
   *************   1363   ,                                       !- Construction Name
   ** Severe  ** IP: IDF line~1363 Error detected in Object=BUILDINGSURFACE:DETAILED, name=DIAGONAL-INTERIOR-WALL-FLOOR-3-SPACE-12 REVERSED
   **   ~~~   ** Field [Construction Name] is required but was blank
   ************* IDF Context for following error/warning message:
   ************* Note -- lines truncated at 300 characters, if necessary...
   *************   1376 BuildingSurface:Detailed,
   ************* indicated Name=diagonal-interior-wall-floor-3-space-2 Reversed
   ************* Only last 3 lines before error line shown.....
   *************   1377   diagonal-interior-wall-floor-3-space-2 Reversed, !- Name
   *************   1378   Wall,                                   !- Surface Type
   *************   1379   ,                                       !- Construction Name
   ** Severe  ** IP: IDF line~1379 Error detected in Object=BUILDINGSURFACE:DETAILED, name=DIAGONAL-INTERIOR-WALL-FLOOR-3-SPACE-2 REVERSED
   **   ~~~   ** Field [Construction Name] is required but was blank
   ************* IDF Context for following error/warning message:
   ************* Note -- lines truncated at 300 characters, if necessary...
   *************   1392 BuildingSurface:Detailed,
   ************* indicated Name=diagonal-interior-wall-floor-3-space-3 Reversed
   ************* Only last 3 lines before error line shown.....
   *************   1393   diagonal-interior-wall-floor-3-space-3 Reversed, !- Name
   *************   1394   Wall,                                   !- Surface Type
   *************   1395   ,                                       !- Construction Name
   ** Severe  ** IP: IDF line~1395 Error detected in Object=BUILDINGSURFACE:DETAILED, name=DIAGONAL-INTERIOR-WALL-FLOOR-3-SPACE-3 REVERSED
   **   ~~~   ** Field [Construction Name] is required but was blank
   ************* IDF Context for following error/warning message:
   ************* Note -- lines truncated at 300 characters, if necessary...
   *************   1408 BuildingSurface:Detailed,
   ************* indicated Name=diagonal-interior-wall-floor-3-space-4 Reversed
   ************* Only last 3 lines before error line shown.....
   *************   1409   diagonal-interior-wall-floor-3-space-4 Reversed, !- Name
   *************   1410   Wall,                                   !- Surface Type
   *************   1411   ,                                       !- Construction Name
   ** Severe  ** IP: IDF line~1411 Error detected in Object=BUILDINGSURFACE:DETAILED, name=DIAGONAL-INTERIOR-WALL-FLOOR-3-SPACE-4 REVERSED
   **   ~~~   ** Field [Construction Name] is required but was blank
   ************* IDF Context for following error/warning message:
   ************* Note -- lines truncated at 300 characters, if necessary...
   *************   1424 BuildingSurface:Detailed,
   ************* indicated Name=diagonal-interior-wall-floor-3-space-5 Reversed
   ************* Only last 3 lines before error line shown.....
   *************   1425   diagonal-interior-wall-floor-3-space-5 Reversed, !- Name
   *************   1426   Wall,                                   !- Surface Type
   *************   1427   ,                                       !- Construction Name
   ** Severe  ** IP: IDF line~1427 Error detected in Object=BUILDINGSURFACE:DETAILED, name=DIAGONAL-INTERIOR-WALL-FLOOR-3-SPACE-5 REVERSED
   **   ~~~   ** Field [Construction Name] is required but was blank
   ************* IDF Context for following error/warning message:
   ************* Note -- lines truncated at 300 characters, if necessary...
   *************   1440 BuildingSurface:Detailed,
   ************* indicated Name=diagonal-interior-wall-floor-3-space-6 Reversed
   ************* Only last 3 lines before error line shown.....
   *************   1441   diagonal-interior-wall-floor-3-space-6 Reversed, !- Name
   *************   1442   Wall,                                   !- Surface Type
   *************   1443   ,                                       !- Construction Name
   ** Severe  ** IP: IDF line~1443 Error detected in Object=BUILDINGSURFACE:DETAILED, name=DIAGONAL-INTERIOR-WALL-FLOOR-3-SPACE-6 REVERSED
   **   ~~~   ** Field [Construction Name] is required but was blank
   ************* IDF Context for following error/warning message:
   ************* Note -- lines truncated at 300 characters, if necessary...
   *************   1456 BuildingSurface:Detailed,
   ************* indicated Name=diagonal-interior-wall-floor-3-space-7 Reversed
   ************* Only last 3 lines before error line shown.....
   *************   1457   diagonal-interior-wall-floor-3-space-7 Reversed, !- Name
   *************   1458   Wall,                                   !- Surface Type
   *************   1459   ,                                       !- Construction Name
   ** Severe  ** IP: IDF line~1459 Error detected in Object=BUILDINGSURFACE:DETAILED, name=DIAGONAL-INTERIOR-WALL-FLOOR-3-SPACE-7 REVERSED
   **   ~~~   ** Field [Construction Name] is required but was blank
   ************* IDF Context for following error/warning message:
   ************* Note -- lines truncated at 300 characters, if necessary...
   *************   1472 BuildingSurface:Detailed,
   ************* indicated Name=diagonal-interior-wall-floor-3-space-8 Reversed
   ************* Only last 3 lines before error line shown.....
   *************   1473   diagonal-interior-wall-floor-3-space-8 Reversed, !- Name
   *************   1474   Wall,                                   !- Surface Type
   *************   1475   ,                                       !- Construction Name
   ** Severe  ** IP: IDF line~1475 Error detected in Object=BUILDINGSURFACE:DETAILED, name=DIAGONAL-INTERIOR-WALL-FLOOR-3-SPACE-8 REVERSED
   **   ~~~   ** Field [Construction Name] is required but was blank
   ************* IDF Context for following error/warning message:
   ************* Note -- lines truncated at 300 characters, if necessary...
   *************   1488 BuildingSurface:Detailed,
   ************* indicated Name=diagonal-interior-wall-floor-3-space-9 Reversed
   ************* Only last 3 lines before error line shown.....
   *************   1489   diagonal-interior-wall-floor-3-space-9 Reversed, !- Name
   *************   1490   Wall,                                   !- Surface Type
   *************   1491   ,                                       !- Construction Name
   ** Severe  ** IP: IDF line~1491 Error detected in Object=BUILDINGSURFACE:DETAILED, name=DIAGONAL-INTERIOR-WALL-FLOOR-3-SPACE-9 REVERSED
   **   ~~~   ** Field [Construction Name] is required but was blank
   ************* IDF Context for following error/warning message:
   ************* Note -- lines truncated at 300 characters, if necessary...
   *************   1504 BuildingSurface:Detailed,
   ************* indicated Name=diagonal-interior-wall-floor-4-space-1 Reversed
   ************* Only last 3 lines before error line shown.....
   *************   1505   diagonal-interior-wall-floor-4-space-1 Reversed, !- Name
   *************   1506   Wall,                                   !- Surface Type
   *************   1507   ,                                       !- Construction Name
   ** Severe  ** IP: IDF line~1507 Error detected in Object=BUILDINGSURFACE:DETAILED, name=DIAGONAL-INTERIOR-WALL-FLOOR-4-SPACE-1 REVERSED
   **   ~~~   ** Field [Construction Name] is required but was blank
   ************* IDF Context for following error/warning message:
   ************* Note -- lines truncated at 300 characters, if necessary...
   *************   1520 BuildingSurface:Detailed,
   ************* indicated Name=diagonal-interior-wall-floor-4-space-10 Reversed
   ************* Only last 3 lines before error line shown.....
   *************   1521   diagonal-interior-wall-floor-4-space-10 Reversed, !- Name
   *************   1522   Wall,                                   !- Surface Type
   *************   1523   ,                                       !- Construction Name
   ** Severe  ** IP: IDF line~1523 Error detected in Object=BUILDINGSURFACE:DETAILED, name=DIAGONAL-INTERIOR-WALL-FLOOR-4-SPACE-10 REVERSED
   **   ~~~   ** Field [Construction Name] is required but was blank
   ************* IDF Context for following error/warning message:
   ************* Note -- lines truncated at 300 characters, if necessary...
   *************   1536 BuildingSurface:Detailed,
   ************* indicated Name=diagonal-interior-wall-floor-4-space-11 Reversed
   ************* Only last 3 lines before error line shown.....
   *************   1537   diagonal-interior-wall-floor-4-space-11 Reversed, !- Name
   *************   1538   Wall,                                   !- Surface Type
   *************   1539   ,                                       !- Construction Name
   ** Severe  ** IP: IDF line~1539 Error detected in Object=BUILDINGSURFACE:DETAILED, name=DIAGONAL-INTERIOR-WALL-FLOOR-4-SPACE-11 REVERSED
   **   ~~~   ** Field [Construction Name] is required but was blank
   ************* IDF Context for following error/warning message:
   ************* Note -- lines truncated at 300 characters, if necessary...
   *************   1552 BuildingSurface:Detailed,
   ************* indicated Name=diagonal-interior-wall-floor-4-space-12 Reversed
   ************* Only last 3 lines before error line shown.....
   *************   1553   diagonal-interior-wall-floor-4-space-12 Reversed, !- Name
   *************   1554   Wall,                                   !- Surface Type
   *************   1555   ,                                       !- Construction Name
   ** Severe  ** IP: IDF line~1555 Error detected in Object=BUILDINGSURFACE:DETAILED, name=DIAGONAL-INTERIOR-WALL-FLOOR-4-SPACE-12 REVERSED
   **   ~~~   ** Field [Construction Name] is required but was blank
   ************* IDF Context for following error/warning message:
   ************* Note -- lines truncated at 300 characters, if necessary...
   *************   1568 BuildingSurface:Detailed,
   ************* indicated Name=diagonal-interior-wall-floor-4-space-2 Reversed
   ************* Only last 3 lines before error line shown.....
   *************   1569   diagonal-interior-wall-floor-4-space-2 Reversed, !- Name
   *************   1570   Wall,                                   !- Surface Type
   *************   1571   ,                                       !- Construction Name
   ** Severe  ** IP: IDF line~1571 Error detected in Object=BUILDINGSURFACE:DETAILED, name=DIAGONAL-INTERIOR-WALL-FLOOR-4-SPACE-2 REVERSED
   **   ~~~   ** Field [Construction Name] is required but was blank
   ************* IDF Context for following error/warning message:
   ************* Note -- lines truncated at 300 characters, if necessary...
   *************   1584 BuildingSurface:Detailed,
   ************* indicated Name=diagonal-interior-wall-floor-4-space-3 Reversed
   ************* Only last 3 lines before error line shown.....
   *************   1585   diagonal-interior-wall-floor-4-space-3 Reversed, !- Name
   *************   1586   Wall,                                   !- Surface Type
   *************   1587   ,                                       !- Construction Name
   ** Severe  ** IP: IDF line~1587 Error detected in Object=BUILDINGSURFACE:DETAILED, name=DIAGONAL-INTERIOR-WALL-FLOOR-4-SPACE-3 REVERSED
   **   ~~~   ** Field [Construction Name] is required but was blank
   ************* IDF Context for following error/warning message:
   ************* Note -- lines truncated at 300 characters, if necessary...
   *************   1600 BuildingSurface:Detailed,
   ************* indicated Name=diagonal-interior-wall-floor-4-space-4 Reversed
   ************* Only last 3 lines before error line shown.....
   *************   1601   diagonal-interior-wall-floor-4-space-4 Reversed, !- Name
   *************   1602   Wall,                                   !- Surface Type
   *************   1603   ,                                       !- Construction Name
   ** Severe  ** IP: IDF line~1603 Error detected in Object=BUILDINGSURFACE:DETAILED, name=DIAGONAL-INTERIOR-WALL-FLOOR-4-SPACE-4 REVERSED
   **   ~~~   ** Field [Construction Name] is required but was blank
   ************* IDF Context for following error/warning message:
   ************* Note -- lines truncated at 300 characters, if necessary...
   *************   1616 BuildingSurface:Detailed,
   ************* indicated Name=diagonal-interior-wall-floor-4-space-5 Reversed
   ************* Only last 3 lines before error line shown.....
   *************   1617   diagonal-interior-wall-floor-4-space-5 Reversed, !- Name
   *************   1618   Wall,                                   !- Surface Type
   *************   1619   ,                                       !- Construction Name
   ** Severe  ** IP: IDF line~1619 Error detected in Object=BUILDINGSURFACE:DETAILED, name=DIAGONAL-INTERIOR-WALL-FLOOR-4-SPACE-5 REVERSED
   **   ~~~   ** Field [Construction Name] is required but was blank
   ************* IDF Context for following error/warning message:
   ************* Note -- lines truncated at 300 characters, if necessary...
   *************   1632 BuildingSurface:Detailed,
   ************* indicated Name=diagonal-interior-wall-floor-4-space-6 Reversed
   ************* Only last 3 lines before error line shown.....
   *************   1633   diagonal-interior-wall-floor-4-space-6 Reversed, !- Name
   *************   1634   Wall,                                   !- Surface Type
   *************   1635   ,                                       !- Construction Name
   ** Severe  ** IP: IDF line~1635 Error detected in Object=BUILDINGSURFACE:DETAILED, name=DIAGONAL-INTERIOR-WALL-FLOOR-4-SPACE-6 REVERSED
   **   ~~~   ** Field [Construction Name] is required but was blank
   ************* IDF Context for following error/warning message:
   ************* Note -- lines truncated at 300 characters, if necessary...
   *************   1648 BuildingSurface:Detailed,
   ************* indicated Name=diagonal-interior-wall-floor-4-space-7 Reversed
   ************* Only last 3 lines before error line shown.....
   *************   1649   diagonal-interior-wall-floor-4-space-7 Reversed, !- Name
   *************   1650   Wall,                                   !- Surface Type
   *************   1651   ,                                       !- Construction Name
   ** Severe  ** IP: IDF line~1651 Error detected in Object=BUILDINGSURFACE:DETAILED, name=DIAGONAL-INTERIOR-WALL-FLOOR-4-SPACE-7 REVERSED
   **   ~~~   ** Field [Construction Name] is required but was blank
   ************* IDF Context for following error/warning message:
   ************* Note -- lines truncated at 300 characters, if necessary...
   *************   1664 BuildingSurface:Detailed,
   ************* indicated Name=diagonal-interior-wall-floor-4-space-8 Reversed
   ************* Only last 3 lines before error line shown.....
   *************   1665   diagonal-interior-wall-floor-4-space-8 Reversed, !- Name
   *************   1666   Wall,                                   !- Surface Type
   *************   1667   ,                                       !- Construction Name
   ** Severe  ** IP: IDF line~1667 Error detected in Object=BUILDINGSURFACE:DETAILED, name=DIAGONAL-INTERIOR-WALL-FLOOR-4-SPACE-8 REVERSED
   **   ~~~   ** Field [Construction Name] is required but was blank
   ************* IDF Context for following error/warning message:
   ************* Note -- lines truncated at 300 characters, if necessary...
   *************   1680 BuildingSurface:Detailed,
   ************* indicated Name=diagonal-interior-wall-floor-4-space-9 Reversed
   ************* Only last 3 lines before error line shown.....
   *************   1681   diagonal-interior-wall-floor-4-space-9 Reversed, !- Name
   *************   1682   Wall,                                   !- Surface Type
   *************   1683   ,                                       !- Construction Name
   ** Severe  ** IP: IDF line~1683 Error detected in Object=BUILDINGSURFACE:DETAILED, name=DIAGONAL-INTERIOR-WALL-FLOOR-4-SPACE-9 REVERSED
   **   ~~~   ** Field [Construction Name] is required but was blank
   ************* IDF Context for following error/warning message:
   ************* Note -- lines truncated at 300 characters, if necessary...
   *************   1696 BuildingSurface:Detailed,
   ************* indicated Name=diagonal-interior-wall-floor-5-space-1 Reversed
   ************* Only last 3 lines before error line shown.....
   *************   1697   diagonal-interior-wall-floor-5-space-1 Reversed, !- Name
   *************   1698   Wall,                                   !- Surface Type
   *************   1699   ,                                       !- Construction Name
   ** Severe  ** IP: IDF line~1699 Error detected in Object=BUILDINGSURFACE:DETAILED, name=DIAGONAL-INTERIOR-WALL-FLOOR-5-SPACE-1 REVERSED
   **   ~~~   ** Field [Construction Name] is required but was blank
   ************* IDF Context for following error/warning message:
   ************* Note -- lines truncated at 300 characters, if necessary...
   *************   1712 BuildingSurface:Detailed,
   ************* indicated Name=diagonal-interior-wall-floor-5-space-10 Reversed
   ************* Only last 3 lines before error line shown.....
   *************   1713   diagonal-interior-wall-floor-5-space-10 Reversed, !- Name
   *************   1714   Wall,                                   !- Surface Type
   *************   1715   ,                                       !- Construction Name
   ** Severe  ** IP: IDF line~1715 Error detected in Object=BUILDINGSURFACE:DETAILED, name=DIAGONAL-INTERIOR-WALL-FLOOR-5-SPACE-10 REVERSED
   **   ~~~   ** Field [Construction Name] is required but was blank
   ************* IDF Context for following error/warning message:
   ************* Note -- lines truncated at 300 characters, if necessary...
   *************   1728 BuildingSurface:Detailed,
   ************* indicated Name=diagonal-interior-wall-floor-5-space-11 Reversed
   ************* Only last 3 lines before error line shown.....
   *************   1729   diagonal-interior-wall-floor-5-space-11 Reversed, !- Name
   *************   1730   Wall,                                   !- Surface Type
   *************   1731   ,                                       !- Construction Name
   ** Severe  ** IP: IDF line~1731 Error detected in Object=BUILDINGSURFACE:DETAILED, name=DIAGONAL-INTERIOR-WALL-FLOOR-5-SPACE-11 REVERSED
   **   ~~~   ** Field [Construction Name] is required but was blank
   ************* IDF Context for following error/warning message:
   ************* Note -- lines truncated at 300 characters, if necessary...
   *************   1744 BuildingSurface:Detailed,
   ************* indicated Name=diagonal-interior-wall-floor-5-space-12 Reversed
   ************* Only last 3 lines before error line shown.....
   *************   1745   diagonal-interior-wall-floor-5-space-12 Reversed, !- Name
   *************   1746   Wall,                                   !- Surface Type
   *************   1747   ,                                       !- Construction Name
   ** Severe  ** IP: IDF line~1747 Error detected in Object=BUILDINGSURFACE:DETAILED, name=DIAGONAL-INTERIOR-WALL-FLOOR-5-SPACE-12 REVERSED
   **   ~~~   ** Field [Construction Name] is required but was blank
   ************* IDF Context for following error/warning message:
   ************* Note -- lines truncated at 300 characters, if necessary...
   *************   1760 BuildingSurface:Detailed,
   ************* indicated Name=diagonal-interior-wall-floor-5-space-2 Reversed
   ************* Only last 3 lines before error line shown.....
   *************   1761   diagonal-interior-wall-floor-5-space-2 Reversed, !- Name
   *************   1762   Wall,                                   !- Surface Type
   *************   1763   ,                                       !- Construction Name
   ** Severe  ** IP: IDF line~1763 Error detected in Object=BUILDINGSURFACE:DETAILED, name=DIAGONAL-INTERIOR-WALL-FLOOR-5-SPACE-2 REVERSED
   **   ~~~   ** Field [Construction Name] is required but was blank
   ************* IDF Context for following error/warning message:
   ************* Note -- lines truncated at 300 characters, if necessary...
   *************   1776 BuildingSurface:Detailed,
   ************* indicated Name=diagonal-interior-wall-floor-5-space-3 Reversed
   ************* Only last 3 lines before error line shown.....
   *************   1777   diagonal-interior-wall-floor-5-space-3 Reversed, !- Name
   *************   1778   Wall,                                   !- Surface Type
   *************   1779   ,                                       !- Construction Name
   ** Severe  ** IP: IDF line~1779 Error detected in Object=BUILDINGSURFACE:DETAILED, name=DIAGONAL-INTERIOR-WALL-FLOOR-5-SPACE-3 REVERSED
   **   ~~~   ** Field [Construction Name] is required but was blank
   ************* IDF Context for following error/warning message:
   ************* Note -- lines truncated at 300 characters, if necessary...
   *************   1792 BuildingSurface:Detailed,
   ************* indicated Name=diagonal-interior-wall-floor-5-space-4 Reversed
   ************* Only last 3 lines before error line shown.....
   *************   1793   diagonal-interior-wall-floor-5-space-4 Reversed, !- Name
   *************   1794   Wall,                                   !- Surface Type
   *************   1795   ,                                       !- Construction Name
   ** Severe  ** IP: IDF line~1795 Error detected in Object=BUILDINGSURFACE:DETAILED, name=DIAGONAL-INTERIOR-WALL-FLOOR-5-SPACE-4 REVERSED
   **   ~~~   ** Field [Construction Name] is required but was blank
   ************* IDF Context for following error/warning message:
   ************* Note -- lines truncated at 300 characters, if necessary...
   *************   1808 BuildingSurface:Detailed,
   ************* indicated Name=diagonal-interior-wall-floor-5-space-5 Reversed
   ************* Only last 3 lines before error line shown.....
   *************   1809   diagonal-interior-wall-floor-5-space-5 Reversed, !- Name
   *************   1810   Wall,                                   !- Surface Type
   *************   1811   ,                                       !- Construction Name
   ** Severe  ** IP: IDF line~1811 Error detected in Object=BUILDINGSURFACE:DETAILED, name=DIAGONAL-INTERIOR-WALL-FLOOR-5-SPACE-5 REVERSED
   **   ~~~   ** Field [Construction Name] is required but was blank
   ************* IDF Context for following error/warning message:
   ************* Note -- lines truncated at 300 characters, if necessary...
   *************   1824 BuildingSurface:Detailed,
   ************* indicated Name=diagonal-interior-wall-floor-5-space-6 Reversed
   ************* Only last 3 lines before error line shown.....
   *************   1825   diagonal-interior-wall-floor-5-space-6 Reversed, !- Name
   *************   1826   Wall,                                   !- Surface Type
   *************   1827   ,                                       !- Construction Name
   ** Severe  ** IP: IDF line~1827 Error detected in Object=BUILDINGSURFACE:DETAILED, name=DIAGONAL-INTERIOR-WALL-FLOOR-5-SPACE-6 REVERSED
   **   ~~~   ** Field [Construction Name] is required but was blank
   ************* IDF Context for following error/warning message:
   ************* Note -- lines truncated at 300 characters, if necessary...
   *************   1840 BuildingSurface:Detailed,
   ************* indicated Name=diagonal-interior-wall-floor-5-space-7 Reversed
   ************* Only last 3 lines before error line shown.....
   *************   1841   diagonal-interior-wall-floor-5-space-7 Reversed, !- Name
   *************   1842   Wall,                                   !- Surface Type
   *************   1843   ,                                       !- Construction Name
   ** Severe  ** IP: IDF line~1843 Error detected in Object=BUILDINGSURFACE:DETAILED, name=DIAGONAL-INTERIOR-WALL-FLOOR-5-SPACE-7 REVERSED
   **   ~~~   ** Field [Construction Name] is required but was blank
   ************* IDF Context for following error/warning message:
   ************* Note -- lines truncated at 300 characters, if necessary...
   *************   1856 BuildingSurface:Detailed,
   ************* indicated Name=diagonal-interior-wall-floor-5-space-8 Reversed
   ************* Only last 3 lines before error line shown.....
   *************   1857   diagonal-interior-wall-floor-5-space-8 Reversed, !- Name
   *************   1858   Wall,                                   !- Surface Type
   *************   1859   ,                                       !- Construction Name
   ** Severe  ** IP: IDF line~1859 Error detected in Object=BUILDINGSURFACE:DETAILED, name=DIAGONAL-INTERIOR-WALL-FLOOR-5-SPACE-8 REVERSED
   **   ~~~   ** Field [Construction Name] is required but was blank
   ************* IDF Context for following error/warning message:
   ************* Note -- lines truncated at 300 characters, if necessary...
   *************   1872 BuildingSurface:Detailed,
   ************* indicated Name=diagonal-interior-wall-floor-5-space-9 Reversed
   ************* Only last 3 lines before error line shown.....
   *************   1873   diagonal-interior-wall-floor-5-space-9 Reversed, !- Name
   *************   1874   Wall,                                   !- Surface Type
   *************   1875   ,                                       !- Construction Name
   ** Severe  ** IP: IDF line~1875 Error detected in Object=BUILDINGSURFACE:DETAILED, name=DIAGONAL-INTERIOR-WALL-FLOOR-5-SPACE-9 REVERSED
   **   ~~~   ** Field [Construction Name] is required but was blank
   ************* IDF Context for following error/warning message:
   ************* Note -- lines truncated at 300 characters, if necessary...
   *************   1888 BuildingSurface:Detailed,
   ************* indicated Name=diagonal-interior-wall-floor-6-space-1 Reversed
   ************* Only last 3 lines before error line shown.....
   *************   1889   diagonal-interior-wall-floor-6-space-1 Reversed, !- Name
   *************   1890   Wall,                                   !- Surface Type
   *************   1891   ,                                       !- Construction Name
   ** Severe  ** IP: IDF line~1891 Error detected in Object=BUILDINGSURFACE:DETAILED, name=DIAGONAL-INTERIOR-WALL-FLOOR-6-SPACE-1 REVERSED
   **   ~~~   ** Field [Construction Name] is required but was blank
   ************* IDF Context for following error/warning message:
   ************* Note -- lines truncated at 300 characters, if necessary...
   *************   1904 BuildingSurface:Detailed,
   ************* indicated Name=diagonal-interior-wall-floor-6-space-10 Reversed
   ************* Only last 3 lines before error line shown.....
   *************   1905   diagonal-interior-wall-floor-6-space-10 Reversed, !- Name
   *************   1906   Wall,                                   !- Surface Type
   *************   1907   ,                                       !- Construction Name
   ** Severe  ** IP: IDF line~1907 Error detected in Object=BUILDINGSURFACE:DETAILED, name=DIAGONAL-INTERIOR-WALL-FLOOR-6-SPACE-10 REVERSED
   **   ~~~   ** Field [Construction Name] is required but was blank
   ************* IDF Context for following error/warning message:
   ************* Note -- lines truncated at 300 characters, if necessary...
   *************   1920 BuildingSurface:Detailed,
   ************* indicated Name=diagonal-interior-wall-floor-6-space-11 Reversed
   ************* Only last 3 lines before error line shown.....
   *************   1921   diagonal-interior-wall-floor-6-space-11 Reversed, !- Name
   *************   1922   Wall,                                   !- Surface Type
   *************   1923   ,                                       !- Construction Name
   ** Severe  ** IP: IDF line~1923 Error detected in Object=BUILDINGSURFACE:DETAILED, name=DIAGONAL-INTERIOR-WALL-FLOOR-6-SPACE-11 REVERSED
   **   ~~~   ** Field [Construction Name] is required but was blank
   ************* IDF Context for following error/warning message:
   ************* Note -- lines truncated at 300 characters, if necessary...
   *************   1936 BuildingSurface:Detailed,
   ************* indicated Name=diagonal-interior-wall-floor-6-space-12 Reversed
   ************* Only last 3 lines before error line shown.....
   *************   1937   diagonal-interior-wall-floor-6-space-12 Reversed, !- Name
   *************   1938   Wall,                                   !- Surface Type
   *************   1939   ,                                       !- Construction Name
   ** Severe  ** IP: IDF line~1939 Error detected in Object=BUILDINGSURFACE:DETAILED, name=DIAGONAL-INTERIOR-WALL-FLOOR-6-SPACE-12 REVERSED
   **   ~~~   ** Field [Construction Name] is required but was blank
   ************* IDF Context for following error/warning message:
   ************* Note -- lines truncated at 300 characters, if necessary...
   *************   1952 BuildingSurface:Detailed,
   ************* indicated Name=diagonal-interior-wall-floor-6-space-2 Reversed
   ************* Only last 3 lines before error line shown.....
   *************   1953   diagonal-interior-wall-floor-6-space-2 Reversed, !- Name
   *************   1954   Wall,                                   !- Surface Type
   *************   1955   ,                                       !- Construction Name
   ** Severe  ** IP: IDF line~1955 Error detected in Object=BUILDINGSURFACE:DETAILED, name=DIAGONAL-INTERIOR-WALL-FLOOR-6-SPACE-2 REVERSED
   **   ~~~   ** Field [Construction Name] is required but was blank
   ************* IDF Context for following error/warning message:
   ************* Note -- lines truncated at 300 characters, if necessary...
   *************   1968 BuildingSurface:Detailed,
   ************* indicated Name=diagonal-interior-wall-floor-6-space-3 Reversed
   ************* Only last 3 lines before error line shown.....
   *************   1969   diagonal-interior-wall-floor-6-space-3 Reversed, !- Name
   *************   1970   Wall,                                   !- Surface Type
   *************   1971   ,                                       !- Construction Name
   ** Severe  ** IP: IDF line~1971 Error detected in Object=BUILDINGSURFACE:DETAILED, name=DIAGONAL-INTERIOR-WALL-FLOOR-6-SPACE-3 REVERSED
   **   ~~~   ** Field [Construction Name] is required but was blank
   ************* IDF Context for following error/warning message:
   ************* Note -- lines truncated at 300 characters, if necessary...
   *************   1984 BuildingSurface:Detailed,
   ************* indicated Name=diagonal-interior-wall-floor-6-space-4 Reversed
   ************* Only last 3 lines before error line shown.....
   *************   1985   diagonal-interior-wall-floor-6-space-4 Reversed, !- Name
   *************   1986   Wall,                                   !- Surface Type
   *************   1987   ,                                       !- Construction Name
   ** Severe  ** IP: IDF line~1987 Error detected in Object=BUILDINGSURFACE:DETAILED, name=DIAGONAL-INTERIOR-WALL-FLOOR-6-SPACE-4 REVERSED
   **   ~~~   ** Field [Construction Name] is required but was blank
   ************* IDF Context for following error/warning message:
   ************* Note -- lines truncated at 300 characters, if necessary...
   *************   2000 BuildingSurface:Detailed,
   ************* indicated Name=diagonal-interior-wall-floor-6-space-5 Reversed
   ************* Only last 3 lines before error line shown.....
   *************   2001   diagonal-interior-wall-floor-6-space-5 Reversed, !- Name
   *************   2002   Wall,                                   !- Surface Type
   *************   2003   ,                                       !- Construction Name
   ** Severe  ** IP: IDF line~2003 Error detected in Object=BUILDINGSURFACE:DETAILED, name=DIAGONAL-INTERIOR-WALL-FLOOR-6-SPACE-5 REVERSED
   **   ~~~   ** Field [Construction Name] is required but was blank
   ************* IDF Context for following error/warning message:
   ************* Note -- lines truncated at 300 characters, if necessary...
   *************   2016 BuildingSurface:Detailed,
   ************* indicated Name=diagonal-interior-wall-floor-6-space-6 Reversed
   ************* Only last 3 lines before error line shown.....
   *************   2017   diagonal-interior-wall-floor-6-space-6 Reversed, !- Name
   *************   2018   Wall,                                   !- Surface Type
   *************   2019   ,                                       !- Construction Name
   ** Severe  ** IP: IDF line~2019 Error detected in Object=BUILDINGSURFACE:DETAILED, name=DIAGONAL-INTERIOR-WALL-FLOOR-6-SPACE-6 REVERSED
   **   ~~~   ** Field [Construction Name] is required but was blank
   ************* IDF Context for following error/warning message:
   ************* Note -- lines truncated at 300 characters, if necessary...
   *************   2032 BuildingSurface:Detailed,
   ************* indicated Name=diagonal-interior-wall-floor-6-space-7 Reversed
   ************* Only last 3 lines before error line shown.....
   *************   2033   diagonal-interior-wall-floor-6-space-7 Reversed, !- Name
   *************   2034   Wall,                                   !- Surface Type
   *************   2035   ,                                       !- Construction Name
   ** Severe  ** IP: IDF line~2035 Error detected in Object=BUILDINGSURFACE:DETAILED, name=DIAGONAL-INTERIOR-WALL-FLOOR-6-SPACE-7 REVERSED
   **   ~~~   ** Field [Construction Name] is required but was blank
   ************* IDF Context for following error/warning message:
   ************* Note -- lines truncated at 300 characters, if necessary...
   *************   2048 BuildingSurface:Detailed,
   ************* indicated Name=diagonal-interior-wall-floor-6-space-8 Reversed
   ************* Only last 3 lines before error line shown.....
   *************   2049   diagonal-interior-wall-floor-6-space-8 Reversed, !- Name
   *************   2050   Wall,                                   !- Surface Type
   *************   2051   ,                                       !- Construction Name
   ** Severe  ** IP: IDF line~2051 Error detected in Object=BUILDINGSURFACE:DETAILED, name=DIAGONAL-INTERIOR-WALL-FLOOR-6-SPACE-8 REVERSED
   **   ~~~   ** Field [Construction Name] is required but was blank
   ************* IDF Context for following error/warning message:
   ************* Note -- lines truncated at 300 characters, if necessary...
   *************   2064 BuildingSurface:Detailed,
   ************* indicated Name=diagonal-interior-wall-floor-6-space-9 Reversed
   ************* Only last 3 lines before error line shown.....
   *************   2065   diagonal-interior-wall-floor-6-space-9 Reversed, !- Name
   *************   2066   Wall,                                   !- Surface Type
   *************   2067   ,                                       !- Construction Name
   ** Severe  ** IP: IDF line~2067 Error detected in Object=BUILDINGSURFACE:DETAILED, name=DIAGONAL-INTERIOR-WALL-FLOOR-6-SPACE-9 REVERSED
   **   ~~~   ** Field [Construction Name] is required but was blank
   ************* IDF Context for following error/warning message:
   ************* Note -- lines truncated at 300 characters, if necessary...
   *************   2080 BuildingSurface:Detailed,
   ************* indicated Name=diagonal-interior-wall-floor-7-space-1 Reversed
   ************* Only last 3 lines before error line shown.....
   *************   2081   diagonal-interior-wall-floor-7-space-1 Reversed, !- Name
   *************   2082   Wall,                                   !- Surface Type
   *************   2083   ,                                       !- Construction Name
   ** Severe  ** IP: IDF line~2083 Error detected in Object=BUILDINGSURFACE:DETAILED, name=DIAGONAL-INTERIOR-WALL-FLOOR-7-SPACE-1 REVERSED
   **   ~~~   ** Field [Construction Name] is required but was blank
   ************* IDF Context for following error/warning message:
   ************* Note -- lines truncated at 300 characters, if necessary...
   *************   2096 BuildingSurface:Detailed,
   ************* indicated Name=diagonal-interior-wall-floor-7-space-10 Reversed
   ************* Only last 3 lines before error line shown.....
   *************   2097   diagonal-interior-wall-floor-7-space-10 Reversed, !- Name
   *************   2098   Wall,                                   !- Surface Type
   *************   2099   ,                                       !- Construction Name
   ** Severe  ** IP: IDF line~2099 Error detected in Object=BUILDINGSURFACE:DETAILED, name=DIAGONAL-INTERIOR-WALL-FLOOR-7-SPACE-10 REVERSED
   **   ~~~   ** Field [Construction Name] is required but was blank
   ************* IDF Context for following error/warning message:
   ************* Note -- lines truncated at 300 characters, if necessary...
   *************   2112 BuildingSurface:Detailed,
   ************* indicated Name=diagonal-interior-wall-floor-7-space-11 Reversed
   ************* Only last 3 lines before error line shown.....
   *************   2113   diagonal-interior-wall-floor-7-space-11 Reversed, !- Name
   *************   2114   Wall,                                   !- Surface Type
   *************   2115   ,                                       !- Construction Name
   ** Severe  ** IP: IDF line~2115 Error detected in Object=BUILDINGSURFACE:DETAILED, name=DIAGONAL-INTERIOR-WALL-FLOOR-7-SPACE-11 REVERSED
   **   ~~~   ** Field [Construction Name] is required but was blank
   ************* IDF Context for following error/warning message:
   ************* Note -- lines truncated at 300 characters, if necessary...
   *************   2128 BuildingSurface:Detailed,
   ************* indicated Name=diagonal-interior-wall-floor-7-space-12 Reversed
   ************* Only last 3 lines before error line shown.....
   *************   2129   diagonal-interior-wall-floor-7-space-12 Reversed, !- Name
   *************   2130   Wall,                                   !- Surface Type
   *************   2131   ,                                       !- Construction Name
   ** Severe  ** IP: IDF line~2131 Error detected in Object=BUILDINGSURFACE:DETAILED, name=DIAGONAL-INTERIOR-WALL-FLOOR-7-SPACE-12 REVERSED
   **   ~~~   ** Field [Construction Name] is required but was blank
   ************* IDF Context for following error/warning message:
   ************* Note -- lines truncated at 300 characters, if necessary...
   *************   2144 BuildingSurface:Detailed,
   ************* indicated Name=diagonal-interior-wall-floor-7-space-2 Reversed
   ************* Only last 3 lines before error line shown.....
   *************   2145   diagonal-interior-wall-floor-7-space-2 Reversed, !- Name
   *************   2146   Wall,                                   !- Surface Type
   *************   2147   ,                                       !- Construction Name
   ** Severe  ** IP: IDF line~2147 Error detected in Object=BUILDINGSURFACE:DETAILED, name=DIAGONAL-INTERIOR-WALL-FLOOR-7-SPACE-2 REVERSED
   **   ~~~   ** Field [Construction Name] is required but was blank
   ************* IDF Context for following error/warning message:
   ************* Note -- lines truncated at 300 characters, if necessary...
   *************   2160 BuildingSurface:Detailed,
   ************* indicated Name=diagonal-interior-wall-floor-7-space-3 Reversed
   ************* Only last 3 lines before error line shown.....
   *************   2161   diagonal-interior-wall-floor-7-space-3 Reversed, !- Name
   *************   2162   Wall,                                   !- Surface Type
   *************   2163   ,                                       !- Construction Name
   ** Severe  ** IP: IDF line~2163 Error detected in Object=BUILDINGSURFACE:DETAILED, name=DIAGONAL-INTERIOR-WALL-FLOOR-7-SPACE-3 REVERSED
   **   ~~~   ** Field [Construction Name] is required but was blank
   ************* IDF Context for following error/warning message:
   ************* Note -- lines truncated at 300 characters, if necessary...
   *************   2176 BuildingSurface:Detailed,
   ************* indicated Name=diagonal-interior-wall-floor-7-space-4 Reversed
   ************* Only last 3 lines before error line shown.....
   *************   2177   diagonal-interior-wall-floor-7-space-4 Reversed, !- Name
   *************   2178   Wall,                                   !- Surface Type
   *************   2179   ,                                       !- Construction Name
   ** Severe  ** IP: IDF line~2179 Error detected in Object=BUILDINGSURFACE:DETAILED, name=DIAGONAL-INTERIOR-WALL-FLOOR-7-SPACE-4 REVERSED
   **   ~~~   ** Field [Construction Name] is required but was blank
   ************* IDF Context for following error/warning message:
   ************* Note -- lines truncated at 300 characters, if necessary...
   *************   2192 BuildingSurface:Detailed,
   ************* indicated Name=diagonal-interior-wall-floor-7-space-5 Reversed
   ************* Only last 3 lines before error line shown.....
   *************   2193   diagonal-interior-wall-floor-7-space-5 Reversed, !- Name
   *************   2194   Wall,                                   !- Surface Type
   *************   2195   ,                                       !- Construction Name
   ** Severe  ** IP: IDF line~2195 Error detected in Object=BUILDINGSURFACE:DETAILED, name=DIAGONAL-INTERIOR-WALL-FLOOR-7-SPACE-5 REVERSED
   **   ~~~   ** Field [Construction Name] is required but was blank
   ************* IDF Context for following error/warning message:
   ************* Note -- lines truncated at 300 characters, if necessary...
   *************   2208 BuildingSurface:Detailed,
   ************* indicated Name=diagonal-interior-wall-floor-7-space-6 Reversed
   ************* Only last 3 lines before error line shown.....
   *************   2209   diagonal-interior-wall-floor-7-space-6 Reversed, !- Name
   *************   2210   Wall,                                   !- Surface Type
   *************   2211   ,                                       !- Construction Name
   ** Severe  ** IP: IDF line~2211 Error detected in Object=BUILDINGSURFACE:DETAILED, name=DIAGONAL-INTERIOR-WALL-FLOOR-7-SPACE-6 REVERSED
   **   ~~~   ** Field [Construction Name] is required but was blank
   ************* IDF Context for following error/warning message:
   ************* Note -- lines truncated at 300 characters, if necessary...
   *************   2224 BuildingSurface:Detailed,
   ************* indicated Name=diagonal-interior-wall-floor-7-space-7 Reversed
   ************* Only last 3 lines before error line shown.....
   *************   2225   diagonal-interior-wall-floor-7-space-7 Reversed, !- Name
   *************   2226   Wall,                                   !- Surface Type
   *************   2227   ,                                       !- Construction Name
   ** Severe  ** IP: IDF line~2227 Error detected in Object=BUILDINGSURFACE:DETAILED, name=DIAGONAL-INTERIOR-WALL-FLOOR-7-SPACE-7 REVERSED
   **   ~~~   ** Field [Construction Name] is required but was blank
   ************* IDF Context for following error/warning message:
   ************* Note -- lines truncated at 300 characters, if necessary...
   *************   2240 BuildingSurface:Detailed,
   ************* indicated Name=diagonal-interior-wall-floor-7-space-8 Reversed
   ************* Only last 3 lines before error line shown.....
   *************   2241   diagonal-interior-wall-floor-7-space-8 Reversed, !- Name
   *************   2242   Wall,                                   !- Surface Type
   *************   2243   ,                                       !- Construction Name
   ** Severe  ** IP: IDF line~2243 Error detected in Object=BUILDINGSURFACE:DETAILED, name=DIAGONAL-INTERIOR-WALL-FLOOR-7-SPACE-8 REVERSED
   **   ~~~   ** Field [Construction Name] is required but was blank
   ************* IDF Context for following error/warning message:
   ************* Note -- lines truncated at 300 characters, if necessary...
   *************   2256 BuildingSurface:Detailed,
   ************* indicated Name=diagonal-interior-wall-floor-7-space-9 Reversed
   ************* Only last 3 lines before error line shown.....
   *************   2257   diagonal-interior-wall-floor-7-space-9 Reversed, !- Name
   *************   2258   Wall,                                   !- Surface Type
   *************   2259   ,                                       !- Construction Name
   ** Severe  ** IP: IDF line~2259 Error detected in Object=BUILDINGSURFACE:DETAILED, name=DIAGONAL-INTERIOR-WALL-FLOOR-7-SPACE-9 REVERSED
   **   ~~~   ** Field [Construction Name] is required but was blank
   ************* IDF Context for following error/warning message:
   ************* Note -- lines truncated at 300 characters, if necessary...
   *************   2272 BuildingSurface:Detailed,
   ************* indicated Name=diagonal-interior-wall-floor-8-space-1 Reversed
   ************* Only last 3 lines before error line shown.....
   *************   2273   diagonal-interior-wall-floor-8-space-1 Reversed, !- Name
   *************   2274   Wall,                                   !- Surface Type
   *************   2275   ,                                       !- Construction Name
   ** Severe  ** IP: IDF line~2275 Error detected in Object=BUILDINGSURFACE:DETAILED, name=DIAGONAL-INTERIOR-WALL-FLOOR-8-SPACE-1 REVERSED
   **   ~~~   ** Field [Construction Name] is required but was blank
   ************* IDF Context for following error/warning message:
   ************* Note -- lines truncated at 300 characters, if necessary...
   *************   2288 BuildingSurface:Detailed,
   ************* indicated Name=diagonal-interior-wall-floor-8-space-10 Reversed
   ************* Only last 3 lines before error line shown.....
   *************   2289   diagonal-interior-wall-floor-8-space-10 Reversed, !- Name
   *************   2290   Wall,                                   !- Surface Type
   *************   2291   ,                                       !- Construction Name
   ** Severe  ** IP: IDF line~2291 Error detected in Object=BUILDINGSURFACE:DETAILED, name=DIAGONAL-INTERIOR-WALL-FLOOR-8-SPACE-10 REVERSED
   **   ~~~   ** Field [Construction Name] is required but was blank
   ************* IDF Context for following error/warning message:
   ************* Note -- lines truncated at 300 characters, if necessary...
   *************   2304 BuildingSurface:Detailed,
   ************* indicated Name=diagonal-interior-wall-floor-8-space-11 Reversed
   ************* Only last 3 lines before error line shown.....
   *************   2305   diagonal-interior-wall-floor-8-space-11 Reversed, !- Name
   *************   2306   Wall,                                   !- Surface Type
   *************   2307   ,                                       !- Construction Name
   ** Severe  ** IP: IDF line~2307 Error detected in Object=BUILDINGSURFACE:DETAILED, name=DIAGONAL-INTERIOR-WALL-FLOOR-8-SPACE-11 REVERSED
   **   ~~~   ** Field [Construction Name] is required but was blank
   ************* IDF Context for following error/warning message:
   ************* Note -- lines truncated at 300 characters, if necessary...
   *************   2320 BuildingSurface:Detailed,
   ************* indicated Name=diagonal-interior-wall-floor-8-space-12 Reversed
   ************* Only last 3 lines before error line shown.....
   *************   2321   diagonal-interior-wall-floor-8-space-12 Reversed, !- Name
   *************   2322   Wall,                                   !- Surface Type
   *************   2323   ,                                       !- Construction Name
   ** Severe  ** IP: IDF line~2323 Error detected in Object=BUILDINGSURFACE:DETAILED, name=DIAGONAL-INTERIOR-WALL-FLOOR-8-SPACE-12 REVERSED
   **   ~~~   ** Field [Construction Name] is required but was blank
   ************* IDF Context for following error/warning message:
   ************* Note -- lines truncated at 300 characters, if necessary...
   *************   2336 BuildingSurface:Detailed,
   ************* indicated Name=diagonal-interior-wall-floor-8-space-2 Reversed
   ************* Only last 3 lines before error line shown.....
   *************   2337   diagonal-interior-wall-floor-8-space-2 Reversed, !- Name
   *************   2338   Wall,                                   !- Surface Type
   *************   2339   ,                                       !- Construction Name
   ** Severe  ** IP: IDF line~2339 Error detected in Object=BUILDINGSURFACE:DETAILED, name=DIAGONAL-INTERIOR-WALL-FLOOR-8-SPACE-2 REVERSED
   **   ~~~   ** Field [Construction Name] is required but was blank
   ************* IDF Context for following error/warning message:
   ************* Note -- lines truncated at 300 characters, if necessary...
   *************   2352 BuildingSurface:Detailed,
   ************* indicated Name=diagonal-interior-wall-floor-8-space-3 Reversed
   ************* Only last 3 lines before error line shown.....
   *************   2353   diagonal-interior-wall-floor-8-space-3 Reversed, !- Name
   *************   2354   Wall,                                   !- Surface Type
   *************   2355   ,                                       !- Construction Name
   ** Severe  ** IP: IDF line~2355 Error detected in Object=BUILDINGSURFACE:DETAILED, name=DIAGONAL-INTERIOR-WALL-FLOOR-8-SPACE-3 REVERSED
   **   ~~~   ** Field [Construction Name] is required but was blank
   ************* IDF Context for following error/warning message:
   ************* Note -- lines truncated at 300 characters, if necessary...
   *************   2368 BuildingSurface:Detailed,
   ************* indicated Name=diagonal-interior-wall-floor-8-space-4 Reversed
   ************* Only last 3 lines before error line shown.....
   *************   2369   diagonal-interior-wall-floor-8-space-4 Reversed, !- Name
   *************   2370   Wall,                                   !- Surface Type
   *************   2371   ,                                       !- Construction Name
   ** Severe  ** IP: IDF line~2371 Error detected in Object=BUILDINGSURFACE:DETAILED, name=DIAGONAL-INTERIOR-WALL-FLOOR-8-SPACE-4 REVERSED
   **   ~~~   ** Field [Construction Name] is required but was blank
   ************* IDF Context for following error/warning message:
   ************* Note -- lines truncated at 300 characters, if necessary...
   *************   2384 BuildingSurface:Detailed,
   ************* indicated Name=diagonal-interior-wall-floor-8-space-5 Reversed
   ************* Only last 3 lines before error line shown.....
   *************   2385   diagonal-interior-wall-floor-8-space-5 Reversed, !- Name
   *************   2386   Wall,                                   !- Surface Type
   *************   2387   ,                                       !- Construction Name
   ** Severe  ** IP: IDF line~2387 Error detected in Object=BUILDINGSURFACE:DETAILED, name=DIAGONAL-INTERIOR-WALL-FLOOR-8-SPACE-5 REVERSED
   **   ~~~   ** Field [Construction Name] is required but was blank
   ************* IDF Context for following error/warning message:
   ************* Note -- lines truncated at 300 characters, if necessary...
   *************   2400 BuildingSurface:Detailed,
   ************* indicated Name=diagonal-interior-wall-floor-8-space-6 Reversed
   ************* Only last 3 lines before error line shown.....
   *************   2401   diagonal-interior-wall-floor-8-space-6 Reversed, !- Name
   *************   2402   Wall,                                   !- Surface Type
   *************   2403   ,                                       !- Construction Name
   ** Severe  ** IP: IDF line~2403 Error detected in Object=BUILDINGSURFACE:DETAILED, name=DIAGONAL-INTERIOR-WALL-FLOOR-8-SPACE-6 REVERSED
   **   ~~~   ** Field [Construction Name] is required but was blank
   ************* IDF Context for following error/warning message:
   ************* Note -- lines truncated at 300 characters, if necessary...
   *************   2416 BuildingSurface:Detailed,
   ************* indicated Name=diagonal-interior-wall-floor-8-space-7 Reversed
   ************* Only last 3 lines before error line shown.....
   *************   2417   diagonal-interior-wall-floor-8-space-7 Reversed, !- Name
   *************   2418   Wall,                                   !- Surface Type
   *************   2419   ,                                       !- Construction Name
   ** Severe  ** IP: IDF line~2419 Error detected in Object=BUILDINGSURFACE:DETAILED, name=DIAGONAL-INTERIOR-WALL-FLOOR-8-SPACE-7 REVERSED
   **   ~~~   ** Field [Construction Name] is required but was blank
   ************* IDF Context for following error/warning message:
   ************* Note -- lines truncated at 300 characters, if necessary...
   *************   2432 BuildingSurface:Detailed,
   ************* indicated Name=diagonal-interior-wall-floor-8-space-8 Reversed
   ************* Only last 3 lines before error line shown.....
   *************   2433   diagonal-interior-wall-floor-8-space-8 Reversed, !- Name
   *************   2434   Wall,                                   !- Surface Type
   *************   2435   ,                                       !- Construction Name
   ** Severe  ** IP: IDF line~2435 Error detected in Object=BUILDINGSURFACE:DETAILED, name=DIAGONAL-INTERIOR-WALL-FLOOR-8-SPACE-8 REVERSED
   **   ~~~   ** Field [Construction Name] is required but was blank
   ************* IDF Context for following error/warning message:
   ************* Note -- lines truncated at 300 characters, if necessary...
   *************   2448 BuildingSurface:Detailed,
   ************* indicated Name=diagonal-interior-wall-floor-8-space-9 Reversed
   ************* Only last 3 lines before error line shown.....
   *************   2449   diagonal-interior-wall-floor-8-space-9 Reversed, !- Name
   *************   2450   Wall,                                   !- Surface Type
   *************   2451   ,                                       !- Construction Name
   ** Severe  ** IP: IDF line~2451 Error detected in Object=BUILDINGSURFACE:DETAILED, name=DIAGONAL-INTERIOR-WALL-FLOOR-8-SPACE-9 REVERSED
   **   ~~~   ** Field [Construction Name] is required but was blank
   ************* IDF Context for following error/warning message:
   ************* Note -- lines truncated at 300 characters, if necessary...
   *************   2464 BuildingSurface:Detailed,
   ************* indicated Name=exterior-wall-floor-1-space-1
   ************* Only last 3 lines before error line shown.....
   *************   2465   exterior-wall-floor-1-space-1,          !- Name
   *************   2466   Wall,                                   !- Surface Type
   *************   2467   ,                                       !- Construction Name
   ** Severe  ** IP: IDF line~2467 Error detected in Object=BUILDINGSURFACE:DETAILED, name=EXTERIOR-WALL-FLOOR-1-SPACE-1
   **   ~~~   ** Field [Construction Name] is required but was blank
   ************* IDF Context for following error/warning message:
   ************* Note -- lines truncated at 300 characters, if necessary...
   *************   2480 FenestrationSurface:Detailed,
   ************* indicated Name=bw-opening-3
   ************* Only last 3 lines before error line shown.....
   *************   2481   bw-opening-3,                           !- Name
   *************   2482   Window,                                 !- Surface Type
   *************   2483   ,                                       !- Construction Name
   ** Severe  ** IP: IDF line~2483 Error detected in Object=FENESTRATIONSURFACE:DETAILED, name=BW-OPENING-3
   **   ~~~   ** Field [Construction Name] is required but was blank
   ************* IDF Context for following error/warning message:
   ************* Note -- lines truncated at 300 characters, if necessary...
   *************   2496 BuildingSurface:Detailed,
   ************* indicated Name=floor-1-space-1
   ************* Only last 3 lines before error line shown.....
   *************   2497   floor-1-space-1,                        !- Name
   *************   2498   Floor,                                  !- Surface Type
   *************   2499   ,                                       !- Construction Name
   ** Severe  ** IP: IDF line~2499 Error detected in Object=BUILDINGSURFACE:DETAILED, name=FLOOR-1-SPACE-1
   **   ~~~   ** Field [Construction Name] is required but was blank
   ************* IDF Context for following error/warning message:
   ************* Note -- lines truncated at 300 characters, if necessary...
   *************   2512 BuildingSurface:Detailed,
   ************* indicated Name=interior-wall-floor-1-space-1
   ************* Only last 3 lines before error line shown.....
   *************   2513   interior-wall-floor-1-space-1,          !- Name
   *************   2514   Wall,                                   !- Surface Type
   *************   2515   ,                                       !- Construction Name
   ** Severe  ** IP: IDF line~2515 Error detected in Object=BUILDINGSURFACE:DETAILED, name=INTERIOR-WALL-FLOOR-1-SPACE-1
   **   ~~~   ** Field [Construction Name] is required but was blank
   ************* IDF Context for following error/warning message:
   ************* Note -- lines truncated at 300 characters, if necessary...
   *************   2542 BuildingSurface:Detailed,
   ************* indicated Name=diagonal-interior-wall-floor-1-space-10
   ************* Only last 3 lines before error line shown.....
   *************   2543   diagonal-interior-wall-floor-1-space-10, !- Name
   *************   2544   Wall,                                   !- Surface Type
   *************   2545   ,                                       !- Construction Name
   ** Severe  ** IP: IDF line~2545 Error detected in Object=BUILDINGSURFACE:DETAILED, name=DIAGONAL-INTERIOR-WALL-FLOOR-1-SPACE-10
   **   ~~~   ** Field [Construction Name] is required but was blank
   ************* IDF Context for following error/warning message:
   ************* Note -- lines truncated at 300 characters, if necessary...
   *************   2558 BuildingSurface:Detailed,
   ************* indicated Name=diagonal-interior-wall-floor-1-space-9 Reversed
   ************* Only last 3 lines before error line shown.....
   *************   2559   diagonal-interior-wall-floor-1-space-9 Reversed, !- Name
   *************   2560   Wall,                                   !- Surface Type
   *************   2561   ,                                       !- Construction Name
   ** Severe  ** IP: IDF line~2561 Error detected in Object=BUILDINGSURFACE:DETAILED, name=DIAGONAL-INTERIOR-WALL-FLOOR-1-SPACE-9 REVERSED
   **   ~~~   ** Field [Construction Name] is required but was blank
   ************* IDF Context for following error/warning message:
   ************* Note -- lines truncated at 300 characters, if necessary...
   *************   2574 BuildingSurface:Detailed,
   ************* indicated Name=exterior-wall-floor-1-space-10
   ************* Only last 3 lines before error line shown.....
   *************   2575   exterior-wall-floor-1-space-10,         !- Name
   *************   2576   Wall,                                   !- Surface Type
   *************   2577   ,                                       !- Construction Name
   ** Severe  ** IP: IDF line~2577 Error detected in Object=BUILDINGSURFACE:DETAILED, name=EXTERIOR-WALL-FLOOR-1-SPACE-10
   **   ~~~   ** Field [Construction Name] is required but was blank
   ************* IDF Context for following error/warning message:
   ************* Note -- lines truncated at 300 characters, if necessary...
   *************   2590 FenestrationSurface:Detailed,
   ************* indicated Name=bw-opening-39
   ************* Only last 3 lines before error line shown.....
   *************   2591   bw-opening-39,                          !- Name
   *************   2592   Window,                                 !- Surface Type
   *************   2593   ,                                       !- Construction Name
   ** Severe  ** IP: IDF line~2593 Error detected in Object=FENESTRATIONSURFACE:DETAILED, name=BW-OPENING-39
   **   ~~~   ** Field [Construction Name] is required but was blank
   ************* IDF Context for following error/warning message:
   ************* Note -- lines truncated at 300 characters, if necessary...
   *************   2606 BuildingSurface:Detailed,
   ************* indicated Name=floor-1-space-10
   ************* Only last 3 lines before error line shown.....
   *************   2607   floor-1-space-10,                       !- Name
   *************   2608   Floor,                                  !- Surface Type
   *************   2609   ,                                       !- Construction Name
   ** Severe  ** IP: IDF line~2609 Error detected in Object=BUILDINGSURFACE:DETAILED, name=FLOOR-1-SPACE-10
   **   ~~~   ** Field [Construction Name] is required but was blank
   ************* IDF Context for following error/warning message:
   ************* Note -- lines truncated at 300 characters, if necessary...
   *************   2622 BuildingSurface:Detailed,
   ************* indicated Name=interior-wall-floor-1-space-10
   ************* Only last 3 lines before error line shown.....
   *************   2623   interior-wall-floor-1-space-10,         !- Name
   *************   2624   Wall,                                   !- Surface Type
   *************   2625   ,                                       !- Construction Name
   ** Severe  ** IP: IDF line~2625 Error detected in Object=BUILDINGSURFACE:DETAILED, name=INTERIOR-WALL-FLOOR-1-SPACE-10
   **   ~~~   ** Field [Construction Name] is required but was blank
   ************* IDF Context for following error/warning message:
   ************* Note -- lines truncated at 300 characters, if necessary...
   *************   2652 BuildingSurface:Detailed,
   ************* indicated Name=diagonal-interior-wall-floor-1-space-10 Reversed
   ************* Only last 3 lines before error line shown.....
   *************   2653   diagonal-interior-wall-floor-1-space-10 Reversed, !- Name
   *************   2654   Wall,                                   !- Surface Type
   *************   2655   ,                                       !- Construction Name
   ** Severe  ** IP: IDF line~2655 Error detected in Object=BUILDINGSURFACE:DETAILED, name=DIAGONAL-INTERIOR-WALL-FLOOR-1-SPACE-10 REVERSED
   **   ~~~   ** Field [Construction Name] is required but was blank
   ************* IDF Context for following error/warning message:
   ************* Note -- lines truncated at 300 characters, if necessary...
   *************   2668 BuildingSurface:Detailed,
   ************* indicated Name=diagonal-interior-wall-floor-1-space-11
   ************* Only last 3 lines before error line shown.....
   *************   2669   diagonal-interior-wall-floor-1-space-11, !- Name
   *************   2670   Wall,                                   !- Surface Type
   *************   2671   ,                                       !- Construction Name
   ** Severe  ** IP: IDF line~2671 Error detected in Object=BUILDINGSURFACE:DETAILED, name=DIAGONAL-INTERIOR-WALL-FLOOR-1-SPACE-11
   **   ~~~   ** Field [Construction Name] is required but was blank
   ************* IDF Context for following error/warning message:
   ************* Note -- lines truncated at 300 characters, if necessary...
   *************   2684 BuildingSurface:Detailed,
   ************* indicated Name=exterior-wall-floor-1-space-11
   ************* Only last 3 lines before error line shown.....
   *************   2685   exterior-wall-floor-1-space-11,         !- Name
   *************   2686   Wall,                                   !- Surface Type
   *************   2687   ,                                       !- Construction Name
   ** Severe  ** IP: IDF line~2687 Error detected in Object=BUILDINGSURFACE:DETAILED, name=EXTERIOR-WALL-FLOOR-1-SPACE-11
   **   ~~~   ** Field [Construction Name] is required but was blank
   ************* IDF Context for following error/warning message:
   ************* Note -- lines truncated at 300 characters, if necessary...
   *************   2700 FenestrationSurface:Detailed,
   ************* indicated Name=bw-opening-43
   ************* Only last 3 lines before error line shown.....
   *************   2701   bw-opening-43,                          !- Name
   *************   2702   Window,                                 !- Surface Type
   *************   2703   ,                                       !- Construction Name
   ** Severe  ** IP: IDF line~2703 Error detected in Object=FENESTRATIONSURFACE:DETAILED, name=BW-OPENING-43
   **   ~~~   ** Field [Construction Name] is required but was blank
   ************* IDF Context for following error/warning message:
   ************* Note -- lines truncated at 300 characters, if necessary...
   *************   2716 BuildingSurface:Detailed,
   ************* indicated Name=floor-1-space-11
   ************* Only last 3 lines before error line shown.....
   *************   2717   floor-1-space-11,                       !- Name
   *************   2718   Floor,                                  !- Surface Type
   *************   2719   ,                                       !- Construction Name
   ** Severe  ** IP: IDF line~2719 Error detected in Object=BUILDINGSURFACE:DETAILED, name=FLOOR-1-SPACE-11
   **   ~~~   ** Field [Construction Name] is required but was blank
   ************* IDF Context for following error/warning message:
   ************* Note -- lines truncated at 300 characters, if necessary...
[...]
   *************  13060   Wall,                                   !- Surface Type
   *************  13061   ,                                       !- Construction Name
   ** Severe  ** IP: IDF line~13061 Error detected in Object=BUILDINGSURFACE:DETAILED, name=INTERIOR-WALL-FLOOR-8-SPACE-4
   **   ~~~   ** Field [Construction Name] is required but was blank
   ************* IDF Context for following error/warning message:
   ************* Note -- lines truncated at 300 characters, if necessary...
   *************  13074 BuildingSurface:Detailed,
   ************* indicated Name=roof-floor-8-space-4
   ************* Only last 3 lines before error line shown.....
   *************  13075   roof-floor-8-space-4,                   !- Name
   *************  13076   Roof,                                   !- Surface Type
   *************  13077   ,                                       !- Construction Name
   ** Severe  ** IP: IDF line~13077 Error detected in Object=BUILDINGSURFACE:DETAILED, name=ROOF-FLOOR-8-SPACE-4
   **   ~~~   ** Field [Construction Name] is required but was blank
   ************* IDF Context for following error/warning message:
   ************* Note -- lines truncated at 300 characters, if necessary...
   *************  13104 BuildingSurface:Detailed,
   ************* indicated Name=diagonal-interior-wall-floor-8-space-5
   ************* Only last 3 lines before error line shown.....
   *************  13105   diagonal-interior-wall-floor-8-space-5, !- Name
   *************  13106   Wall,                                   !- Surface Type
   *************  13107   ,                                       !- Construction Name
   ** Severe  ** IP: IDF line~13107 Error detected in Object=BUILDINGSURFACE:DETAILED, name=DIAGONAL-INTERIOR-WALL-FLOOR-8-SPACE-5
   **   ~~~   ** Field [Construction Name] is required but was blank
   ************* IDF Context for following error/warning message:
   ************* Note -- lines truncated at 300 characters, if necessary...
   *************  13120 BuildingSurface:Detailed,
   ************* indicated Name=exterior-wall-floor-8-space-5
   ************* Only last 3 lines before error line shown.....
   *************  13121   exterior-wall-floor-8-space-5,          !- Name
   *************  13122   Wall,                                   !- Surface Type
   *************  13123   ,                                       !- Construction Name
   ** Severe  ** IP: IDF line~13123 Error detected in Object=BUILDINGSURFACE:DETAILED, name=EXTERIOR-WALL-FLOOR-8-SPACE-5
   **   ~~~   ** Field [Construction Name] is required but was blank
   ************* IDF Context for following error/warning message:
   ************* Note -- lines truncated at 300 characters, if necessary...
   *************  13136 FenestrationSurface:Detailed,
   ************* indicated Name=bw-opening-374
   ************* Only last 3 lines before error line shown.....
   *************  13137   bw-opening-374,                         !- Name
   *************  13138   Window,                                 !- Surface Type
   *************  13139   ,                                       !- Construction Name
   ** Severe  ** IP: IDF line~13139 Error detected in Object=FENESTRATIONSURFACE:DETAILED, name=BW-OPENING-374
   **   ~~~   ** Field [Construction Name] is required but was blank
   ************* IDF Context for following error/warning message:
   ************* Note -- lines truncated at 300 characters, if necessary...
   *************  13152 BuildingSurface:Detailed,
   ************* indicated Name=floor-8-space-5
   ************* Only last 3 lines before error line shown.....
   *************  13153   floor-8-space-5,                        !- Name
   *************  13154   Floor,                                  !- Surface Type
   *************  13155   ,                                       !- Construction Name
   ** Severe  ** IP: IDF line~13155 Error detected in Object=BUILDINGSURFACE:DETAILED, name=FLOOR-8-SPACE-5
   **   ~~~   ** Field [Construction Name] is required but was blank
   ************* IDF Context for following error/warning message:
   ************* Note -- lines truncated at 300 characters, if necessary...
   *************  13168 BuildingSurface:Detailed,
   ************* indicated Name=interior-wall-floor-8-space-5
   ************* Only last 3 lines before error line shown.....
   *************  13169   interior-wall-floor-8-space-5,          !- Name
   *************  13170   Wall,                                   !- Surface Type
   *************  13171   ,                                       !- Construction Name
   ** Severe  ** IP: IDF line~13171 Error detected in Object=BUILDINGSURFACE:DETAILED, name=INTERIOR-WALL-FLOOR-8-SPACE-5
   **   ~~~   ** Field [Construction Name] is required but was blank
   ************* IDF Context for following error/warning message:
   ************* Note -- lines truncated at 300 characters, if necessary...
   *************  13184 BuildingSurface:Detailed,
   ************* indicated Name=roof-floor-8-space-5
   ************* Only last 3 lines before error line shown.....
   *************  13185   roof-floor-8-space-5,                   !- Name
   *************  13186   Roof,                                   !- Surface Type
   *************  13187   ,                                       !- Construction Name
   ** Severe  ** IP: IDF line~13187 Error detected in Object=BUILDINGSURFACE:DETAILED, name=ROOF-FLOOR-8-SPACE-5
   **   ~~~   ** Field [Construction Name] is required but was blank
   ************* IDF Context for following error/warning message:
   ************* Note -- lines truncated at 300 characters, if necessary...
   *************  13214 BuildingSurface:Detailed,
   ************* indicated Name=diagonal-interior-wall-floor-8-space-6
   ************* Only last 3 lines before error line shown.....
   *************  13215   diagonal-interior-wall-floor-8-space-6, !- Name
   *************  13216   Wall,                                   !- Surface Type
   *************  13217   ,                                       !- Construction Name
   ** Severe  ** IP: IDF line~13217 Error detected in Object=BUILDINGSURFACE:DETAILED, name=DIAGONAL-INTERIOR-WALL-FLOOR-8-SPACE-6
   **   ~~~   ** Field [Construction Name] is required but was blank
   ************* IDF Context for following error/warning message:
   ************* Note -- lines truncated at 300 characters, if necessary...
   *************  13230 BuildingSurface:Detailed,
   ************* indicated Name=exterior-wall-floor-8-space-6
   ************* Only last 3 lines before error line shown.....
   *************  13231   exterior-wall-floor-8-space-6,          !- Name
   *************  13232   Wall,                                   !- Surface Type
   *************  13233   ,                                       !- Construction Name
   ** Severe  ** IP: IDF line~13233 Error detected in Object=BUILDINGSURFACE:DETAILED, name=EXTERIOR-WALL-FLOOR-8-SPACE-6
   **   ~~~   ** Field [Construction Name] is required but was blank
   ************* IDF Context for following error/warning message:
   ************* Note -- lines truncated at 300 characters, if necessary...
   *************  13246 FenestrationSurface:Detailed,
   ************* indicated Name=bw-opening-379
   ************* Only last 3 lines before error line shown.....
   *************  13247   bw-opening-379,                         !- Name
   *************  13248   Window,                                 !- Surface Type
   *************  13249   ,                                       !- Construction Name
   ** Severe  ** IP: IDF line~13249 Error detected in Object=FENESTRATIONSURFACE:DETAILED, name=BW-OPENING-379
   **   ~~~   ** Field [Construction Name] is required but was blank
   ************* IDF Context for following error/warning message:
   ************* Note -- lines truncated at 300 characters, if necessary...
   *************  13262 BuildingSurface:Detailed,
   ************* indicated Name=floor-8-space-6
   ************* Only last 3 lines before error line shown.....
   *************  13263   floor-8-space-6,                        !- Name
   *************  13264   Floor,                                  !- Surface Type
   *************  13265   ,                                       !- Construction Name
   ** Severe  ** IP: IDF line~13265 Error detected in Object=BUILDINGSURFACE:DETAILED, name=FLOOR-8-SPACE-6
   **   ~~~   ** Field [Construction Name] is required but was blank
   ************* IDF Context for following error/warning message:
   ************* Note -- lines truncated at 300 characters, if necessary...
   *************  13278 BuildingSurface:Detailed,
   ************* indicated Name=interior-wall-floor-8-space-6
   ************* Only last 3 lines before error line shown.....
   *************  13279   interior-wall-floor-8-space-6,          !- Name
   *************  13280   Wall,                                   !- Surface Type
   *************  13281   ,                                       !- Construction Name
   ** Severe  ** IP: IDF line~13281 Error detected in Object=BUILDINGSURFACE:DETAILED, name=INTERIOR-WALL-FLOOR-8-SPACE-6
   **   ~~~   ** Field [Construction Name] is required but was blank
   ************* IDF Context for following error/warning message:
   ************* Note -- lines truncated at 300 characters, if necessary...
   *************  13294 BuildingSurface:Detailed,
   ************* indicated Name=roof-floor-8-space-6
   ************* Only last 3 lines before error line shown.....
   *************  13295   roof-floor-8-space-6,                   !- Name
   *************  13296   Roof,                                   !- Surface Type
   *************  13297   ,                                       !- Construction Name
   ** Severe  ** IP: IDF line~13297 Error detected in Object=BUILDINGSURFACE:DETAILED, name=ROOF-FLOOR-8-SPACE-6
   **   ~~~   ** Field [Construction Name] is required but was blank
   ************* IDF Context for following error/warning message:
   ************* Note -- lines truncated at 300 characters, if necessary...
   *************  13324 BuildingSurface:Detailed,
   ************* indicated Name=diagonal-interior-wall-floor-8-space-7
   ************* Only last 3 lines before error line shown.....
   *************  13325   diagonal-interior-wall-floor-8-space-7, !- Name
   *************  13326   Wall,                                   !- Surface Type
   *************  13327   ,                                       !- Construction Name
   ** Severe  ** IP: IDF line~13327 Error detected in Object=BUILDINGSURFACE:DETAILED, name=DIAGONAL-INTERIOR-WALL-FLOOR-8-SPACE-7
   **   ~~~   ** Field [Construction Name] is required but was blank
   ************* IDF Context for following error/warning message:
   ************* Note -- lines truncated at 300 characters, if necessary...
   *************  13340 BuildingSurface:Detailed,
   ************* indicated Name=exterior-wall-floor-8-space-7
   ************* Only last 3 lines before error line shown.....
   *************  13341   exterior-wall-floor-8-space-7,          !- Name
   *************  13342   Wall,                                   !- Surface Type
   *************  13343   ,                                       !- Construction Name
   ** Severe  ** IP: IDF line~13343 Error detected in Object=BUILDINGSURFACE:DETAILED, name=EXTERIOR-WALL-FLOOR-8-SPACE-7
   **   ~~~   ** Field [Construction Name] is required but was blank
   ************* IDF Context for following error/warning message:
   ************* Note -- lines truncated at 300 characters, if necessary...
   *************  13356 FenestrationSurface:Detailed,
   ************* indicated Name=bw-opening-384
   ************* Only last 3 lines before error line shown.....
   *************  13357   bw-opening-384,                         !- Name
   *************  13358   Window,                                 !- Surface Type
   *************  13359   ,                                       !- Construction Name
   ** Severe  ** IP: IDF line~13359 Error detected in Object=FENESTRATIONSURFACE:DETAILED, name=BW-OPENING-384
   **   ~~~   ** Field [Construction Name] is required but was blank
   ************* IDF Context for following error/warning message:
   ************* Note -- lines truncated at 300 characters, if necessary...
   *************  13372 BuildingSurface:Detailed,
   ************* indicated Name=floor-8-space-7
   ************* Only last 3 lines before error line shown.....
   *************  13373   floor-8-space-7,                        !- Name
   *************  13374   Floor,                                  !- Surface Type
   *************  13375   ,                                       !- Construction Name
   ** Severe  ** IP: IDF line~13375 Error detected in Object=BUILDINGSURFACE:DETAILED, name=FLOOR-8-SPACE-7
   **   ~~~   ** Field [Construction Name] is required but was blank
   ************* IDF Context for following error/warning message:
   ************* Note -- lines truncated at 300 characters, if necessary...
   *************  13388 BuildingSurface:Detailed,
   ************* indicated Name=interior-wall-floor-8-space-7
   ************* Only last 3 lines before error line shown.....
   *************  13389   interior-wall-floor-8-space-7,          !- Name
   *************  13390   Wall,                                   !- Surface Type
   *************  13391   ,                                       !- Construction Name
   ** Severe  ** IP: IDF line~13391 Error detected in Object=BUILDINGSURFACE:DETAILED, name=INTERIOR-WALL-FLOOR-8-SPACE-7
   **   ~~~   ** Field [Construction Name] is required but was blank
   ************* IDF Context for following error/warning message:
   ************* Note -- lines truncated at 300 characters, if necessary...
   *************  13404 BuildingSurface:Detailed,
   ************* indicated Name=roof-floor-8-space-7
   ************* Only last 3 lines before error line shown.....
   *************  13405   roof-floor-8-space-7,                   !- Name
   *************  13406   Roof,                                   !- Surface Type
   *************  13407   ,                                       !- Construction Name
   ** Severe  ** IP: IDF line~13407 Error detected in Object=BUILDINGSURFACE:DETAILED, name=ROOF-FLOOR-8-SPACE-7
   **   ~~~   ** Field [Construction Name] is required but was blank
   ************* IDF Context for following error/warning message:
   ************* Note -- lines truncated at 300 characters, if necessary...
   *************  13434 BuildingSurface:Detailed,
   ************* indicated Name=diagonal-interior-wall-floor-8-space-8
   ************* Only last 3 lines before error line shown.....
   *************  13435   diagonal-interior-wall-floor-8-space-8, !- Name
   *************  13436   Wall,                                   !- Surface Type
   *************  13437   ,                                       !- Construction Name
   ** Severe  ** IP: IDF line~13437 Error detected in Object=BUILDINGSURFACE:DETAILED, name=DIAGONAL-INTERIOR-WALL-FLOOR-8-SPACE-8
   **   ~~~   ** Field [Construction Name] is required but was blank
   ************* IDF Context for following error/warning message:
   ************* Note -- lines truncated at 300 characters, if necessary...
   *************  13450 BuildingSurface:Detailed,
   ************* indicated Name=exterior-wall-floor-8-space-8
   ************* Only last 3 lines before error line shown.....
   *************  13451   exterior-wall-floor-8-space-8,          !- Name
   *************  13452   Wall,                                   !- Surface Type
   *************  13453   ,                                       !- Construction Name
   ** Severe  ** IP: IDF line~13453 Error detected in Object=BUILDINGSURFACE:DETAILED, name=EXTERIOR-WALL-FLOOR-8-SPACE-8
   **   ~~~   ** Field [Construction Name] is required but was blank
   ************* IDF Context for following error/warning message:
   ************* Note -- lines truncated at 300 characters, if necessary...
   *************  13466 FenestrationSurface:Detailed,
   ************* indicated Name=bw-opening-389
   ************* Only last 3 lines before error line shown.....
   *************  13467   bw-opening-389,                         !- Name
   *************  13468   Window,                                 !- Surface Type
   *************  13469   ,                                       !- Construction Name
   ** Severe  ** IP: IDF line~13469 Error detected in Object=FENESTRATIONSURFACE:DETAILED, name=BW-OPENING-389
   **   ~~~   ** Field [Construction Name] is required but was blank
   ************* IDF Context for following error/warning message:
   ************* Note -- lines truncated at 300 characters, if necessary...
   *************  13482 BuildingSurface:Detailed,
   ************* indicated Name=floor-8-space-8
   ************* Only last 3 lines before error line shown.....
   *************  13483   floor-8-space-8,                        !- Name
   *************  13484   Floor,                                  !- Surface Type
   *************  13485   ,                                       !- Construction Name
   ** Severe  ** IP: IDF line~13485 Error detected in Object=BUILDINGSURFACE:DETAILED, name=FLOOR-8-SPACE-8
   **   ~~~   ** Field [Construction Name] is required but was blank
   ************* IDF Context for following error/warning message:
   ************* Note -- lines truncated at 300 characters, if necessary...
   *************  13498 BuildingSurface:Detailed,
   ************* indicated Name=interior-wall-floor-8-space-8
   ************* Only last 3 lines before error line shown.....
   *************  13499   interior-wall-floor-8-space-8,          !- Name
   *************  13500   Wall,                                   !- Surface Type
   *************  13501   ,                                       !- Construction Name
   ** Severe  ** IP: IDF line~13501 Error detected in Object=BUILDINGSURFACE:DETAILED, name=INTERIOR-WALL-FLOOR-8-SPACE-8
   **   ~~~   ** Field [Construction Name] is required but was blank
   ************* IDF Context for following error/warning message:
   ************* Note -- lines truncated at 300 characters, if necessary...
   *************  13514 BuildingSurface:Detailed,
   ************* indicated Name=roof-floor-8-space-8
   ************* Only last 3 lines before error line shown.....
   *************  13515   roof-floor-8-space-8,                   !- Name
   *************  13516   Roof,                                   !- Surface Type
   *************  13517   ,                                       !- Construction Name
   ** Severe  ** IP: IDF line~13517 Error detected in Object=BUILDINGSURFACE:DETAILED, name=ROOF-FLOOR-8-SPACE-8
   **   ~~~   ** Field [Construction Name] is required but was blank
   ** Severe  ** IP: Blank "required" fields found in input
   ** Severe  ** IP: Out of "range" values and/or blank required fields found in input
   **  Fatal  ** IP: Errors occurred on processing IDF file. Preceding condition(s) cause termination.
   ...Summary of Errors that led to program termination:
   ..... Reference severe error count=685
   ..... Last severe error=IP: Out of "range" values and/or blank required fields found in input
   ************* Warning:  Node connection errors not checked - most system input has not been read (see previous warning).
   ************* Fatal error -- final processing.  Program exited before simulations began.  See previous error messages.
   ************* EnergyPlus Warmup Error Summary. During Warmup: 0 Warning; 0 Severe Errors.
   ************* EnergyPlus Sizing Error Summary. During Sizing: 0 Warning; 0 Severe Errors.
   ************* EnergyPlus Terminated--Fatal Error Detected. 0 Warning; 685 Severe Errors; Elapsed Time=00hr 00min  0.49sec
