! Program Version,EnergyPlus, Version 8.8.0-7c3bbe4830, YMD=2017.10.30 15:32,IDD_Version 8.8.0
! Output:Variable Objects (applicable to this run)
Output:Variable,*,Site Outdoor Air Drybulb Temperature,hourly; !- Zone Average [C]
Output:Variable,*,Site Outdoor Air Dewpoint Temperature,hourly; !- Zone Average [C]
Output:Variable,*,Site Outdoor Air Wetbulb Temperature,hourly; !- Zone Average [C]
Output:Variable,*,Site Outdoor Air Humidity Ratio,hourly; !- Zone Average [kgWater/kgDryAir]
Output:Variable,*,Site Outdoor Air Relative Humidity,hourly; !- Zone Average [%]
Output:Variable,*,Site Outdoor Air Barometric Pressure,hourly; !- Zone Average [Pa]
Output:Variable,*,Site Wind Speed,hourly; !- Zone Average [m/s]
Output:Variable,*,Site Wind Direction,hourly; !- Zone Average [deg]
Output:Variable,*,Site Sky Temperature,hourly; !- Zone Average [C]
Output:Variable,*,Site Horizontal Infrared Radiation Rate per Area,hourly; !- Zone Average [W/m2]
Output:Variable,*,Site Diffuse Solar Radiation Rate per Area,hourly; !- Zone Average [W/m2]
Output:Variable,*,Site Direct Solar Radiation Rate per Area,hourly; !- Zone Average [W/m2]
Output:Variable,*,Site Precipitation Depth,hourly; !- Zone Sum [m]
Output:Variable,*,Site Ground Reflected Solar Radiation Rate per Area,hourly; !- Zone Average [W/m2]
Output:Variable,*,Site Ground Temperature,hourly; !- Zone Average [C]
Output:Variable,*,Site Surface Ground Temperature,hourly; !- Zone Average [C]
Output:Variable,*,Site Deep Ground Temperature,hourly; !- Zone Average [C]
Output:Variable,*,Site Simple Factor Model Ground Temperature,hourly; !- Zone Average [C]
Output:Variable,*,Site Outdoor Air Enthalpy,hourly; !- Zone Average [J/kg]
Output:Variable,*,Site Outdoor Air Density,hourly; !- Zone Average [kg/m3]
Output:Variable,*,Site Solar Azimuth Angle,hourly; !- Zone Average [deg]
Output:Variable,*,Site Solar Altitude Angle,hourly; !- Zone Average [deg]
Output:Variable,*,Site Solar Hour Angle,hourly; !- Zone Average [deg]
Output:Variable,*,Site Rain Status,hourly; !- Zone Average []
Output:Variable,*,Site Snow on Ground Status,hourly; !- Zone Average []
Output:Variable,*,Site Exterior Horizontal Sky Illuminance,hourly; !- Zone Average [lux]
Output:Variable,*,Site Exterior Horizontal Beam Illuminance,hourly; !- Zone Average [lux]
Output:Variable,*,Site Exterior Beam Normal Illuminance,hourly; !- Zone Average [lux]
Output:Variable,*,Site Sky Diffuse Solar Radiation Luminous Efficacy,hourly; !- Zone Average [lum/W]
Output:Variable,*,Site Beam Solar Radiation Luminous Efficacy,hourly; !- Zone Average [lum/W]
Output:Variable,*,Site Daylighting Model Sky Clearness,hourly; !- Zone Average []
Output:Variable,*,Site Daylighting Model Sky Brightness,hourly; !- Zone Average []
Output:Variable,*,Site Daylight Saving Time Status,hourly; !- Zone Average []
Output:Variable,*,Site Day Type Index,hourly; !- Zone Average []
Output:Variable,*,Site Mains Water Temperature,hourly; !- Zone Average [C]
Output:Variable,*,HVAC System Solver Iteration Count,hourly; !- HVAC Sum []
Output:Variable,*,Air System Solver Iteration Count,hourly; !- HVAC Sum []
Output:Variable,*,Air System Simulation Maximum Iteration Count,hourly; !- HVAC Sum []
Output:Variable,*,Air System Simulation Iteration Count,hourly; !- HVAC Sum []
Output:Variable,*,Air System Component Model Simulation Calls,hourly; !- HVAC Sum []
Output:Variable,*,Facility Any Zone Oscillating Temperatures Time,hourly; !- HVAC Sum [hr]
Output:Variable,*,Facility Thermal Comfort ASHRAE 55 Simple Model Summer Clothes Not Comfortable Time,hourly; !- Zone Sum [hr]
Output:Variable,*,Facility Thermal Comfort ASHRAE 55 Simple Model Winter Clothes Not Comfortable Time,hourly; !- Zone Sum [hr]
Output:Variable,*,Facility Thermal Comfort ASHRAE 55 Simple Model Summer or Winter Clothes Not Comfortable Time,hourly; !- Zone Sum [hr]
Output:Variable,*,Facility Heating Setpoint Not Met Time,hourly; !- Zone Sum [hr]
Output:Variable,*,Facility Cooling Setpoint Not Met Time,hourly; !- Zone Sum [hr]
Output:Variable,*,Facility Heating Setpoint Not Met While Occupied Time,hourly; !- Zone Sum [hr]
Output:Variable,*,Facility Cooling Setpoint Not Met While Occupied Time,hourly; !- Zone Sum [hr]
Output:Variable,*,Schedule Value,hourly; !- Zone Average []
Output:Variable,*,Environmental Impact Total N2O Emissions Carbon Equivalent Mass,hourly; !- HVAC Sum [kg]
Output:Variable,*,Environmental Impact Total CH4 Emissions Carbon Equivalent Mass,hourly; !- HVAC Sum [kg]
Output:Variable,*,Environmental Impact Total CO2 Emissions Carbon Equivalent Mass,hourly; !- HVAC Sum [kg]
