Program Version,EnergyPlus, Version 8.8.0-7c3bbe4830, YMD=2017.10.30 17:40,IDD_Version 8.8.0
   ************* IDF Context for following error/warning message:
   ************* Note -- lines truncated at 300 characters, if necessary...
   *************    764 BuildingSurface:Detailed,
   ************* indicated Name=diagonal-interior-wall-floor-1-space-1
   ************* Only last 3 lines before error line shown.....
   *************    765   diagonal-interior-wall-floor-1-space-1, !- Name
   *************    766   Wall,                                   !- Surface Type
   *************    767   ,                                       !- Construction Name
   ** Severe  ** IP: IDF line~767 Error detected in Object=BUILDINGSURFACE:DETAILED, name=DIAGONAL-INTERIOR-WALL-FLOOR-1-SPACE-1
   **   ~~~   ** Field [Construction Name] is required but was blank
   ************* IDF Context for following error/warning message:
   ************* Note -- lines truncated at 300 characters, if necessary...
   *************    780 BuildingSurface:Detailed,
   ************* indicated Name=diagonal-interior-wall-floor-1-space-12 Reversed
   ************* Only last 3 lines before error line shown.....
   *************    781   diagonal-interior-wall-floor-1-space-12 Reversed, !- Name
   *************    782   Wall,                                   !- Surface Type
   *************    783   ,                                       !- Construction Name
   ** Severe  ** IP: IDF line~783 Error detected in Object=BUILDINGSURFACE:DETAILED, name=DIAGONAL-INTERIOR-WALL-FLOOR-1-SPACE-12 REVERSED
   **   ~~~   ** Field [Construction Name] is required but was blank
   ************* IDF Context for following error/warning message:
   ************* Note -- lines truncated at 300 characters, if necessary...
   *************    796 BuildingSurface:Detailed,
   ************* indicated Name=diagonal-interior-wall-floor-2-space-1 Reversed
   ************* Only last 3 lines before error line shown.....
   *************    797   diagonal-interior-wall-floor-2-space-1 Reversed, !- Name
   *************    798   Wall,                                   !- Surface Type
   *************    799   ,                                       !- Construction Name
   ** Severe  ** IP: IDF line~799 Error detected in Object=BUILDINGSURFACE:DETAILED, name=DIAGONAL-INTERIOR-WALL-FLOOR-2-SPACE-1 REVERSED
   **   ~~~   ** Field [Construction Name] is required but was blank
   ************* IDF Context for following error/warning message:
   ************* Note -- lines truncated at 300 characters, if necessary...
   *************    812 BuildingSurface:Detailed,
   ************* indicated Name=diagonal-interior-wall-floor-2-space-10 Reversed
   ************* Only last 3 lines before error line shown.....
   *************    813   diagonal-interior-wall-floor-2-space-10 Reversed, !- Name
   *************    814   Wall,                                   !- Surface Type
   *************    815   ,                                       !- Construction Name
   ** Severe  ** IP: IDF line~815 Error detected in Object=BUILDINGSURFACE:DETAILED, name=DIAGONAL-INTERIOR-WALL-FLOOR-2-SPACE-10 REVERSED
   **   ~~~   ** Field [Construction Name] is required but was blank
   ************* IDF Context for following error/warning message:
   ************* Note -- lines truncated at 300 characters, if necessary...
   *************    828 BuildingSurface:Detailed,
   ************* indicated Name=diagonal-interior-wall-floor-2-space-11 Reversed
   ************* Only last 3 lines before error line shown.....
   *************    829   diagonal-interior-wall-floor-2-space-11 Reversed, !- Name
   *************    830   Wall,                                   !- Surface Type
   *************    831   ,                                       !- Construction Name
   ** Severe  ** IP: IDF line~831 Error detected in Object=BUILDINGSURFACE:DETAILED, name=DIAGONAL-INTERIOR-WALL-FLOOR-2-SPACE-11 REVERSED
   **   ~~~   ** Field [Construction Name] is required but was blank
   ************* IDF Context for following error/warning message:
   ************* Note -- lines truncated at 300 characters, if necessary...
   *************    844 BuildingSurface:Detailed,
   ************* indicated Name=diagonal-interior-wall-floor-2-space-12 Reversed
   ************* Only last 3 lines before error line shown.....
   *************    845   diagonal-interior-wall-floor-2-space-12 Reversed, !- Name
   *************    846   Wall,                                   !- Surface Type
   *************    847   ,                                       !- Construction Name
   ** Severe  ** IP: IDF line~847 Error detected in Object=BUILDINGSURFACE:DETAILED, name=DIAGONAL-INTERIOR-WALL-FLOOR-2-SPACE-12 REVERSED
   **   ~~~   ** Field [Construction Name] is required but was blank
   ************* IDF Context for following error/warning message:
   ************* Note -- lines truncated at 300 characters, if necessary...
   *************    860 BuildingSurface:Detailed,
   ************* indicated Name=diagonal-interior-wall-floor-2-space-2 Reversed
   ************* Only last 3 lines before error line shown.....
   *************    861   diagonal-interior-wall-floor-2-space-2 Reversed, !- Name
   *************    862   Wall,                                   !- Surface Type
   *************    863   ,                                       !- Construction Name
   ** Severe  ** IP: IDF line~863 Error detected in Object=BUILDINGSURFACE:DETAILED, name=DIAGONAL-INTERIOR-WALL-FLOOR-2-SPACE-2 REVERSED
   **   ~~~   ** Field [Construction Name] is required but was blank
   ************* IDF Context for following error/warning message:
   ************* Note -- lines truncated at 300 characters, if necessary...
   *************    876 BuildingSurface:Detailed,
   ************* indicated Name=diagonal-interior-wall-floor-2-space-3 Reversed
   ************* Only last 3 lines before error line shown.....
   *************    877   diagonal-interior-wall-floor-2-space-3 Reversed, !- Name
   *************    878   Wall,                                   !- Surface Type
   *************    879   ,                                       !- Construction Name
   ** Severe  ** IP: IDF line~879 Error detected in Object=BUILDINGSURFACE:DETAILED, name=DIAGONAL-INTERIOR-WALL-FLOOR-2-SPACE-3 REVERSED
   **   ~~~   ** Field [Construction Name] is required but was blank
   ************* IDF Context for following error/warning message:
   ************* Note -- lines truncated at 300 characters, if necessary...
   *************    892 BuildingSurface:Detailed,
   ************* indicated Name=diagonal-interior-wall-floor-2-space-4 Reversed
   ************* Only last 3 lines before error line shown.....
   *************    893   diagonal-interior-wall-floor-2-space-4 Reversed, !- Name
   *************    894   Wall,                                   !- Surface Type
   *************    895   ,                                       !- Construction Name
   ** Severe  ** IP: IDF line~895 Error detected in Object=BUILDINGSURFACE:DETAILED, name=DIAGONAL-INTERIOR-WALL-FLOOR-2-SPACE-4 REVERSED
   **   ~~~   ** Field [Construction Name] is required but was blank
   ************* IDF Context for following error/warning message:
   ************* Note -- lines truncated at 300 characters, if necessary...
   *************    908 BuildingSurface:Detailed,
   ************* indicated Name=diagonal-interior-wall-floor-2-space-5 Reversed
   ************* Only last 3 lines before error line shown.....
   *************    909   diagonal-interior-wall-floor-2-space-5 Reversed, !- Name
   *************    910   Wall,                                   !- Surface Type
   *************    911   ,                                       !- Construction Name
   ** Severe  ** IP: IDF line~911 Error detected in Object=BUILDINGSURFACE:DETAILED, name=DIAGONAL-INTERIOR-WALL-FLOOR-2-SPACE-5 REVERSED
   **   ~~~   ** Field [Construction Name] is required but was blank
   ************* IDF Context for following error/warning message:
   ************* Note -- lines truncated at 300 characters, if necessary...
   *************    924 BuildingSurface:Detailed,
   ************* indicated Name=diagonal-interior-wall-floor-2-space-6 Reversed
   ************* Only last 3 lines before error line shown.....
   *************    925   diagonal-interior-wall-floor-2-space-6 Reversed, !- Name
   *************    926   Wall,                                   !- Surface Type
   *************    927   ,                                       !- Construction Name
   ** Severe  ** IP: IDF line~927 Error detected in Object=BUILDINGSURFACE:DETAILED, name=DIAGONAL-INTERIOR-WALL-FLOOR-2-SPACE-6 REVERSED
   **   ~~~   ** Field [Construction Name] is required but was blank
   ************* IDF Context for following error/warning message:
   ************* Note -- lines truncated at 300 characters, if necessary...
   *************    940 BuildingSurface:Detailed,
   ************* indicated Name=diagonal-interior-wall-floor-2-space-7 Reversed
   ************* Only last 3 lines before error line shown.....
   *************    941   diagonal-interior-wall-floor-2-space-7 Reversed, !- Name
   *************    942   Wall,                                   !- Surface Type
   *************    943   ,                                       !- Construction Name
   ** Severe  ** IP: IDF line~943 Error detected in Object=BUILDINGSURFACE:DETAILED, name=DIAGONAL-INTERIOR-WALL-FLOOR-2-SPACE-7 REVERSED
   **   ~~~   ** Field [Construction Name] is required but was blank
   ************* IDF Context for following error/warning message:
   ************* Note -- lines truncated at 300 characters, if necessary...
   *************    956 BuildingSurface:Detailed,
   ************* indicated Name=diagonal-interior-wall-floor-2-space-8 Reversed
   ************* Only last 3 lines before error line shown.....
   *************    957   diagonal-interior-wall-floor-2-space-8 Reversed, !- Name
   *************    958   Wall,                                   !- Surface Type
   *************    959   ,                                       !- Construction Name
   ** Severe  ** IP: IDF line~959 Error detected in Object=BUILDINGSURFACE:DETAILED, name=DIAGONAL-INTERIOR-WALL-FLOOR-2-SPACE-8 REVERSED
   **   ~~~   ** Field [Construction Name] is required but was blank
   ************* IDF Context for following error/warning message:
   ************* Note -- lines truncated at 300 characters, if necessary...
   *************    972 BuildingSurface:Detailed,
   ************* indicated Name=diagonal-interior-wall-floor-2-space-9 Reversed
   ************* Only last 3 lines before error line shown.....
   *************    973   diagonal-interior-wall-floor-2-space-9 Reversed, !- Name
   *************    974   Wall,                                   !- Surface Type
   *************    975   ,                                       !- Construction Name
   ** Severe  ** IP: IDF line~975 Error detected in Object=BUILDINGSURFACE:DETAILED, name=DIAGONAL-INTERIOR-WALL-FLOOR-2-SPACE-9 REVERSED
   **   ~~~   ** Field [Construction Name] is required but was blank
   ************* IDF Context for following error/warning message:
   ************* Note -- lines truncated at 300 characters, if necessary...
   *************    988 BuildingSurface:Detailed,
   ************* indicated Name=diagonal-interior-wall-floor-3-space-1 Reversed
   ************* Only last 3 lines before error line shown.....
   *************    989   diagonal-interior-wall-floor-3-space-1 Reversed, !- Name
   *************    990   Wall,                                   !- Surface Type
   *************    991   ,                                       !- Construction Name
   ** Severe  ** IP: IDF line~991 Error detected in Object=BUILDINGSURFACE:DETAILED, name=DIAGONAL-INTERIOR-WALL-FLOOR-3-SPACE-1 REVERSED
   **   ~~~   ** Field [Construction Name] is required but was blank
   ************* IDF Context for following error/warning message:
   ************* Note -- lines truncated at 300 characters, if necessary...
   *************   1004 BuildingSurface:Detailed,
   ************* indicated Name=diagonal-interior-wall-floor-3-space-10 Reversed
   ************* Only last 3 lines before error line shown.....
   *************   1005   diagonal-interior-wall-floor-3-space-10 Reversed, !- Name
   *************   1006   Wall,                                   !- Surface Type
   *************   1007   ,                                       !- Construction Name
   ** Severe  ** IP: IDF line~1007 Error detected in Object=BUILDINGSURFACE:DETAILED, name=DIAGONAL-INTERIOR-WALL-FLOOR-3-SPACE-10 REVERSED
   **   ~~~   ** Field [Construction Name] is required but was blank
   ************* IDF Context for following error/warning message:
   ************* Note -- lines truncated at 300 characters, if necessary...
   *************   1020 BuildingSurface:Detailed,
   ************* indicated Name=diagonal-interior-wall-floor-3-space-11 Reversed
   ************* Only last 3 lines before error line shown.....
   *************   1021   diagonal-interior-wall-floor-3-space-11 Reversed, !- Name
   *************   1022   Wall,                                   !- Surface Type
   *************   1023   ,                                       !- Construction Name
   ** Severe  ** IP: IDF line~1023 Error detected in Object=BUILDINGSURFACE:DETAILED, name=DIAGONAL-INTERIOR-WALL-FLOOR-3-SPACE-11 REVERSED
   **   ~~~   ** Field [Construction Name] is required but was blank
   ************* IDF Context for following error/warning message:
   ************* Note -- lines truncated at 300 characters, if necessary...
   *************   1036 BuildingSurface:Detailed,
   ************* indicated Name=diagonal-interior-wall-floor-3-space-12 Reversed
   ************* Only last 3 lines before error line shown.....
   *************   1037   diagonal-interior-wall-floor-3-space-12 Reversed, !- Name
   *************   1038   Wall,                                   !- Surface Type
   *************   1039   ,                                       !- Construction Name
   ** Severe  ** IP: IDF line~1039 Error detected in Object=BUILDINGSURFACE:DETAILED, name=DIAGONAL-INTERIOR-WALL-FLOOR-3-SPACE-12 REVERSED
   **   ~~~   ** Field [Construction Name] is required but was blank
   ************* IDF Context for following error/warning message:
   ************* Note -- lines truncated at 300 characters, if necessary...
   *************   1052 BuildingSurface:Detailed,
   ************* indicated Name=diagonal-interior-wall-floor-3-space-2 Reversed
   ************* Only last 3 lines before error line shown.....
   *************   1053   diagonal-interior-wall-floor-3-space-2 Reversed, !- Name
   *************   1054   Wall,                                   !- Surface Type
   *************   1055   ,                                       !- Construction Name
   ** Severe  ** IP: IDF line~1055 Error detected in Object=BUILDINGSURFACE:DETAILED, name=DIAGONAL-INTERIOR-WALL-FLOOR-3-SPACE-2 REVERSED
   **   ~~~   ** Field [Construction Name] is required but was blank
   ************* IDF Context for following error/warning message:
   ************* Note -- lines truncated at 300 characters, if necessary...
   *************   1068 BuildingSurface:Detailed,
   ************* indicated Name=diagonal-interior-wall-floor-3-space-3 Reversed
   ************* Only last 3 lines before error line shown.....
   *************   1069   diagonal-interior-wall-floor-3-space-3 Reversed, !- Name
   *************   1070   Wall,                                   !- Surface Type
   *************   1071   ,                                       !- Construction Name
   ** Severe  ** IP: IDF line~1071 Error detected in Object=BUILDINGSURFACE:DETAILED, name=DIAGONAL-INTERIOR-WALL-FLOOR-3-SPACE-3 REVERSED
   **   ~~~   ** Field [Construction Name] is required but was blank
   ************* IDF Context for following error/warning message:
   ************* Note -- lines truncated at 300 characters, if necessary...
   *************   1084 BuildingSurface:Detailed,
   ************* indicated Name=diagonal-interior-wall-floor-3-space-4 Reversed
   ************* Only last 3 lines before error line shown.....
   *************   1085   diagonal-interior-wall-floor-3-space-4 Reversed, !- Name
   *************   1086   Wall,                                   !- Surface Type
   *************   1087   ,                                       !- Construction Name
   ** Severe  ** IP: IDF line~1087 Error detected in Object=BUILDINGSURFACE:DETAILED, name=DIAGONAL-INTERIOR-WALL-FLOOR-3-SPACE-4 REVERSED
   **   ~~~   ** Field [Construction Name] is required but was blank
   ************* IDF Context for following error/warning message:
   ************* Note -- lines truncated at 300 characters, if necessary...
   *************   1100 BuildingSurface:Detailed,
   ************* indicated Name=diagonal-interior-wall-floor-3-space-5 Reversed
   ************* Only last 3 lines before error line shown.....
   *************   1101   diagonal-interior-wall-floor-3-space-5 Reversed, !- Name
   *************   1102   Wall,                                   !- Surface Type
   *************   1103   ,                                       !- Construction Name
   ** Severe  ** IP: IDF line~1103 Error detected in Object=BUILDINGSURFACE:DETAILED, name=DIAGONAL-INTERIOR-WALL-FLOOR-3-SPACE-5 REVERSED
   **   ~~~   ** Field [Construction Name] is required but was blank
   ************* IDF Context for following error/warning message:
   ************* Note -- lines truncated at 300 characters, if necessary...
   *************   1116 BuildingSurface:Detailed,
   ************* indicated Name=diagonal-interior-wall-floor-3-space-6 Reversed
   ************* Only last 3 lines before error line shown.....
   *************   1117   diagonal-interior-wall-floor-3-space-6 Reversed, !- Name
   *************   1118   Wall,                                   !- Surface Type
   *************   1119   ,                                       !- Construction Name
   ** Severe  ** IP: IDF line~1119 Error detected in Object=BUILDINGSURFACE:DETAILED, name=DIAGONAL-INTERIOR-WALL-FLOOR-3-SPACE-6 REVERSED
   **   ~~~   ** Field [Construction Name] is required but was blank
   ************* IDF Context for following error/warning message:
   ************* Note -- lines truncated at 300 characters, if necessary...
   *************   1132 BuildingSurface:Detailed,
   ************* indicated Name=diagonal-interior-wall-floor-3-space-7 Reversed
   ************* Only last 3 lines before error line shown.....
   *************   1133   diagonal-interior-wall-floor-3-space-7 Reversed, !- Name
   *************   1134   Wall,                                   !- Surface Type
   *************   1135   ,                                       !- Construction Name
   ** Severe  ** IP: IDF line~1135 Error detected in Object=BUILDINGSURFACE:DETAILED, name=DIAGONAL-INTERIOR-WALL-FLOOR-3-SPACE-7 REVERSED
   **   ~~~   ** Field [Construction Name] is required but was blank
   ************* IDF Context for following error/warning message:
   ************* Note -- lines truncated at 300 characters, if necessary...
   *************   1148 BuildingSurface:Detailed,
   ************* indicated Name=diagonal-interior-wall-floor-3-space-8 Reversed
   ************* Only last 3 lines before error line shown.....
   *************   1149   diagonal-interior-wall-floor-3-space-8 Reversed, !- Name
   *************   1150   Wall,                                   !- Surface Type
   *************   1151   ,                                       !- Construction Name
   ** Severe  ** IP: IDF line~1151 Error detected in Object=BUILDINGSURFACE:DETAILED, name=DIAGONAL-INTERIOR-WALL-FLOOR-3-SPACE-8 REVERSED
   **   ~~~   ** Field [Construction Name] is required but was blank
   ************* IDF Context for following error/warning message:
   ************* Note -- lines truncated at 300 characters, if necessary...
   *************   1164 BuildingSurface:Detailed,
   ************* indicated Name=diagonal-interior-wall-floor-3-space-9 Reversed
   ************* Only last 3 lines before error line shown.....
   *************   1165   diagonal-interior-wall-floor-3-space-9 Reversed, !- Name
   *************   1166   Wall,                                   !- Surface Type
   *************   1167   ,                                       !- Construction Name
   ** Severe  ** IP: IDF line~1167 Error detected in Object=BUILDINGSURFACE:DETAILED, name=DIAGONAL-INTERIOR-WALL-FLOOR-3-SPACE-9 REVERSED
   **   ~~~   ** Field [Construction Name] is required but was blank
   ************* IDF Context for following error/warning message:
   ************* Note -- lines truncated at 300 characters, if necessary...
   *************   1180 BuildingSurface:Detailed,
   ************* indicated Name=diagonal-interior-wall-floor-4-space-1 Reversed
   ************* Only last 3 lines before error line shown.....
   *************   1181   diagonal-interior-wall-floor-4-space-1 Reversed, !- Name
   *************   1182   Wall,                                   !- Surface Type
   *************   1183   ,                                       !- Construction Name
   ** Severe  ** IP: IDF line~1183 Error detected in Object=BUILDINGSURFACE:DETAILED, name=DIAGONAL-INTERIOR-WALL-FLOOR-4-SPACE-1 REVERSED
   **   ~~~   ** Field [Construction Name] is required but was blank
   ************* IDF Context for following error/warning message:
   ************* Note -- lines truncated at 300 characters, if necessary...
   *************   1196 BuildingSurface:Detailed,
   ************* indicated Name=diagonal-interior-wall-floor-4-space-10 Reversed
   ************* Only last 3 lines before error line shown.....
   *************   1197   diagonal-interior-wall-floor-4-space-10 Reversed, !- Name
   *************   1198   Wall,                                   !- Surface Type
   *************   1199   ,                                       !- Construction Name
   ** Severe  ** IP: IDF line~1199 Error detected in Object=BUILDINGSURFACE:DETAILED, name=DIAGONAL-INTERIOR-WALL-FLOOR-4-SPACE-10 REVERSED
   **   ~~~   ** Field [Construction Name] is required but was blank
   ************* IDF Context for following error/warning message:
   ************* Note -- lines truncated at 300 characters, if necessary...
   *************   1212 BuildingSurface:Detailed,
   ************* indicated Name=diagonal-interior-wall-floor-4-space-11 Reversed
   ************* Only last 3 lines before error line shown.....
   *************   1213   diagonal-interior-wall-floor-4-space-11 Reversed, !- Name
   *************   1214   Wall,                                   !- Surface Type
   *************   1215   ,                                       !- Construction Name
   ** Severe  ** IP: IDF line~1215 Error detected in Object=BUILDINGSURFACE:DETAILED, name=DIAGONAL-INTERIOR-WALL-FLOOR-4-SPACE-11 REVERSED
   **   ~~~   ** Field [Construction Name] is required but was blank
   ************* IDF Context for following error/warning message:
   ************* Note -- lines truncated at 300 characters, if necessary...
   *************   1228 BuildingSurface:Detailed,
   ************* indicated Name=diagonal-interior-wall-floor-4-space-12 Reversed
   ************* Only last 3 lines before error line shown.....
   *************   1229   diagonal-interior-wall-floor-4-space-12 Reversed, !- Name
   *************   1230   Wall,                                   !- Surface Type
   *************   1231   ,                                       !- Construction Name
   ** Severe  ** IP: IDF line~1231 Error detected in Object=BUILDINGSURFACE:DETAILED, name=DIAGONAL-INTERIOR-WALL-FLOOR-4-SPACE-12 REVERSED
   **   ~~~   ** Field [Construction Name] is required but was blank
   ************* IDF Context for following error/warning message:
   ************* Note -- lines truncated at 300 characters, if necessary...
   *************   1244 BuildingSurface:Detailed,
   ************* indicated Name=diagonal-interior-wall-floor-4-space-2 Reversed
   ************* Only last 3 lines before error line shown.....
   *************   1245   diagonal-interior-wall-floor-4-space-2 Reversed, !- Name
   *************   1246   Wall,                                   !- Surface Type
   *************   1247   ,                                       !- Construction Name
   ** Severe  ** IP: IDF line~1247 Error detected in Object=BUILDINGSURFACE:DETAILED, name=DIAGONAL-INTERIOR-WALL-FLOOR-4-SPACE-2 REVERSED
   **   ~~~   ** Field [Construction Name] is required but was blank
   ************* IDF Context for following error/warning message:
   ************* Note -- lines truncated at 300 characters, if necessary...
   *************   1260 BuildingSurface:Detailed,
   ************* indicated Name=diagonal-interior-wall-floor-4-space-3 Reversed
   ************* Only last 3 lines before error line shown.....
   *************   1261   diagonal-interior-wall-floor-4-space-3 Reversed, !- Name
   *************   1262   Wall,                                   !- Surface Type
   *************   1263   ,                                       !- Construction Name
   ** Severe  ** IP: IDF line~1263 Error detected in Object=BUILDINGSURFACE:DETAILED, name=DIAGONAL-INTERIOR-WALL-FLOOR-4-SPACE-3 REVERSED
   **   ~~~   ** Field [Construction Name] is required but was blank
   ************* IDF Context for following error/warning message:
   ************* Note -- lines truncated at 300 characters, if necessary...
   *************   1276 BuildingSurface:Detailed,
   ************* indicated Name=diagonal-interior-wall-floor-4-space-4 Reversed
   ************* Only last 3 lines before error line shown.....
   *************   1277   diagonal-interior-wall-floor-4-space-4 Reversed, !- Name
   *************   1278   Wall,                                   !- Surface Type
   *************   1279   ,                                       !- Construction Name
   ** Severe  ** IP: IDF line~1279 Error detected in Object=BUILDINGSURFACE:DETAILED, name=DIAGONAL-INTERIOR-WALL-FLOOR-4-SPACE-4 REVERSED
   **   ~~~   ** Field [Construction Name] is required but was blank
   ************* IDF Context for following error/warning message:
   ************* Note -- lines truncated at 300 characters, if necessary...
   *************   1292 BuildingSurface:Detailed,
   ************* indicated Name=diagonal-interior-wall-floor-4-space-5 Reversed
   ************* Only last 3 lines before error line shown.....
   *************   1293   diagonal-interior-wall-floor-4-space-5 Reversed, !- Name
   *************   1294   Wall,                                   !- Surface Type
   *************   1295   ,                                       !- Construction Name
   ** Severe  ** IP: IDF line~1295 Error detected in Object=BUILDINGSURFACE:DETAILED, name=DIAGONAL-INTERIOR-WALL-FLOOR-4-SPACE-5 REVERSED
   **   ~~~   ** Field [Construction Name] is required but was blank
   ************* IDF Context for following error/warning message:
   ************* Note -- lines truncated at 300 characters, if necessary...
   *************   1308 BuildingSurface:Detailed,
   ************* indicated Name=diagonal-interior-wall-floor-4-space-6 Reversed
   ************* Only last 3 lines before error line shown.....
   *************   1309   diagonal-interior-wall-floor-4-space-6 Reversed, !- Name
   *************   1310   Wall,                                   !- Surface Type
   *************   1311   ,                                       !- Construction Name
   ** Severe  ** IP: IDF line~1311 Error detected in Object=BUILDINGSURFACE:DETAILED, name=DIAGONAL-INTERIOR-WALL-FLOOR-4-SPACE-6 REVERSED
   **   ~~~   ** Field [Construction Name] is required but was blank
   ************* IDF Context for following error/warning message:
   ************* Note -- lines truncated at 300 characters, if necessary...
   *************   1324 BuildingSurface:Detailed,
   ************* indicated Name=diagonal-interior-wall-floor-4-space-7 Reversed
   ************* Only last 3 lines before error line shown.....
   *************   1325   diagonal-interior-wall-floor-4-space-7 Reversed, !- Name
   *************   1326   Wall,                                   !- Surface Type
   *************   1327   ,                                       !- Construction Name
   ** Severe  ** IP: IDF line~1327 Error detected in Object=BUILDINGSURFACE:DETAILED, name=DIAGONAL-INTERIOR-WALL-FLOOR-4-SPACE-7 REVERSED
   **   ~~~   ** Field [Construction Name] is required but was blank
   ************* IDF Context for following error/warning message:
   ************* Note -- lines truncated at 300 characters, if necessary...
   *************   1340 BuildingSurface:Detailed,
   ************* indicated Name=diagonal-interior-wall-floor-4-space-8 Reversed
   ************* Only last 3 lines before error line shown.....
   *************   1341   diagonal-interior-wall-floor-4-space-8 Reversed, !- Name
   *************   1342   Wall,                                   !- Surface Type
   *************   1343   ,                                       !- Construction Name
   ** Severe  ** IP: IDF line~1343 Error detected in Object=BUILDINGSURFACE:DETAILED, name=DIAGONAL-INTERIOR-WALL-FLOOR-4-SPACE-8 REVERSED
   **   ~~~   ** Field [Construction Name] is required but was blank
   ************* IDF Context for following error/warning message:
   ************* Note -- lines truncated at 300 characters, if necessary...
   *************   1356 BuildingSurface:Detailed,
   ************* indicated Name=diagonal-interior-wall-floor-4-space-9 Reversed
   ************* Only last 3 lines before error line shown.....
   *************   1357   diagonal-interior-wall-floor-4-space-9 Reversed, !- Name
   *************   1358   Wall,                                   !- Surface Type
   *************   1359   ,                                       !- Construction Name
   ** Severe  ** IP: IDF line~1359 Error detected in Object=BUILDINGSURFACE:DETAILED, name=DIAGONAL-INTERIOR-WALL-FLOOR-4-SPACE-9 REVERSED
   **   ~~~   ** Field [Construction Name] is required but was blank
   ************* IDF Context for following error/warning message:
   ************* Note -- lines truncated at 300 characters, if necessary...
   *************   1372 BuildingSurface:Detailed,
   ************* indicated Name=diagonal-interior-wall-floor-5-space-1 Reversed
   ************* Only last 3 lines before error line shown.....
   *************   1373   diagonal-interior-wall-floor-5-space-1 Reversed, !- Name
   *************   1374   Wall,                                   !- Surface Type
   *************   1375   ,                                       !- Construction Name
   ** Severe  ** IP: IDF line~1375 Error detected in Object=BUILDINGSURFACE:DETAILED, name=DIAGONAL-INTERIOR-WALL-FLOOR-5-SPACE-1 REVERSED
   **   ~~~   ** Field [Construction Name] is required but was blank
   ************* IDF Context for following error/warning message:
   ************* Note -- lines truncated at 300 characters, if necessary...
   *************   1388 BuildingSurface:Detailed,
   ************* indicated Name=diagonal-interior-wall-floor-5-space-10 Reversed
   ************* Only last 3 lines before error line shown.....
   *************   1389   diagonal-interior-wall-floor-5-space-10 Reversed, !- Name
   *************   1390   Wall,                                   !- Surface Type
   *************   1391   ,                                       !- Construction Name
   ** Severe  ** IP: IDF line~1391 Error detected in Object=BUILDINGSURFACE:DETAILED, name=DIAGONAL-INTERIOR-WALL-FLOOR-5-SPACE-10 REVERSED
   **   ~~~   ** Field [Construction Name] is required but was blank
   ************* IDF Context for following error/warning message:
   ************* Note -- lines truncated at 300 characters, if necessary...
   *************   1404 BuildingSurface:Detailed,
   ************* indicated Name=diagonal-interior-wall-floor-5-space-11 Reversed
   ************* Only last 3 lines before error line shown.....
   *************   1405   diagonal-interior-wall-floor-5-space-11 Reversed, !- Name
   *************   1406   Wall,                                   !- Surface Type
   *************   1407   ,                                       !- Construction Name
   ** Severe  ** IP: IDF line~1407 Error detected in Object=BUILDINGSURFACE:DETAILED, name=DIAGONAL-INTERIOR-WALL-FLOOR-5-SPACE-11 REVERSED
   **   ~~~   ** Field [Construction Name] is required but was blank
   ************* IDF Context for following error/warning message:
   ************* Note -- lines truncated at 300 characters, if necessary...
   *************   1420 BuildingSurface:Detailed,
   ************* indicated Name=diagonal-interior-wall-floor-5-space-12 Reversed
   ************* Only last 3 lines before error line shown.....
   *************   1421   diagonal-interior-wall-floor-5-space-12 Reversed, !- Name
   *************   1422   Wall,                                   !- Surface Type
   *************   1423   ,                                       !- Construction Name
   ** Severe  ** IP: IDF line~1423 Error detected in Object=BUILDINGSURFACE:DETAILED, name=DIAGONAL-INTERIOR-WALL-FLOOR-5-SPACE-12 REVERSED
   **   ~~~   ** Field [Construction Name] is required but was blank
   ************* IDF Context for following error/warning message:
   ************* Note -- lines truncated at 300 characters, if necessary...
   *************   1436 BuildingSurface:Detailed,
   ************* indicated Name=diagonal-interior-wall-floor-5-space-2 Reversed
   ************* Only last 3 lines before error line shown.....
   *************   1437   diagonal-interior-wall-floor-5-space-2 Reversed, !- Name
   *************   1438   Wall,                                   !- Surface Type
   *************   1439   ,                                       !- Construction Name
   ** Severe  ** IP: IDF line~1439 Error detected in Object=BUILDINGSURFACE:DETAILED, name=DIAGONAL-INTERIOR-WALL-FLOOR-5-SPACE-2 REVERSED
   **   ~~~   ** Field [Construction Name] is required but was blank
   ************* IDF Context for following error/warning message:
   ************* Note -- lines truncated at 300 characters, if necessary...
   *************   1452 BuildingSurface:Detailed,
   ************* indicated Name=diagonal-interior-wall-floor-5-space-3 Reversed
   ************* Only last 3 lines before error line shown.....
   *************   1453   diagonal-interior-wall-floor-5-space-3 Reversed, !- Name
   *************   1454   Wall,                                   !- Surface Type
   *************   1455   ,                                       !- Construction Name
   ** Severe  ** IP: IDF line~1455 Error detected in Object=BUILDINGSURFACE:DETAILED, name=DIAGONAL-INTERIOR-WALL-FLOOR-5-SPACE-3 REVERSED
   **   ~~~   ** Field [Construction Name] is required but was blank
   ************* IDF Context for following error/warning message:
   ************* Note -- lines truncated at 300 characters, if necessary...
   *************   1468 BuildingSurface:Detailed,
   ************* indicated Name=diagonal-interior-wall-floor-5-space-4 Reversed
   ************* Only last 3 lines before error line shown.....
   *************   1469   diagonal-interior-wall-floor-5-space-4 Reversed, !- Name
   *************   1470   Wall,                                   !- Surface Type
   *************   1471   ,                                       !- Construction Name
   ** Severe  ** IP: IDF line~1471 Error detected in Object=BUILDINGSURFACE:DETAILED, name=DIAGONAL-INTERIOR-WALL-FLOOR-5-SPACE-4 REVERSED
   **   ~~~   ** Field [Construction Name] is required but was blank
   ************* IDF Context for following error/warning message:
   ************* Note -- lines truncated at 300 characters, if necessary...
   *************   1484 BuildingSurface:Detailed,
   ************* indicated Name=diagonal-interior-wall-floor-5-space-5 Reversed
   ************* Only last 3 lines before error line shown.....
   *************   1485   diagonal-interior-wall-floor-5-space-5 Reversed, !- Name
   *************   1486   Wall,                                   !- Surface Type
   *************   1487   ,                                       !- Construction Name
   ** Severe  ** IP: IDF line~1487 Error detected in Object=BUILDINGSURFACE:DETAILED, name=DIAGONAL-INTERIOR-WALL-FLOOR-5-SPACE-5 REVERSED
   **   ~~~   ** Field [Construction Name] is required but was blank
   ************* IDF Context for following error/warning message:
   ************* Note -- lines truncated at 300 characters, if necessary...
   *************   1500 BuildingSurface:Detailed,
   ************* indicated Name=diagonal-interior-wall-floor-5-space-6 Reversed
   ************* Only last 3 lines before error line shown.....
   *************   1501   diagonal-interior-wall-floor-5-space-6 Reversed, !- Name
   *************   1502   Wall,                                   !- Surface Type
   *************   1503   ,                                       !- Construction Name
   ** Severe  ** IP: IDF line~1503 Error detected in Object=BUILDINGSURFACE:DETAILED, name=DIAGONAL-INTERIOR-WALL-FLOOR-5-SPACE-6 REVERSED
   **   ~~~   ** Field [Construction Name] is required but was blank
   ************* IDF Context for following error/warning message:
   ************* Note -- lines truncated at 300 characters, if necessary...
   *************   1516 BuildingSurface:Detailed,
   ************* indicated Name=diagonal-interior-wall-floor-5-space-7 Reversed
   ************* Only last 3 lines before error line shown.....
   *************   1517   diagonal-interior-wall-floor-5-space-7 Reversed, !- Name
   *************   1518   Wall,                                   !- Surface Type
   *************   1519   ,                                       !- Construction Name
   ** Severe  ** IP: IDF line~1519 Error detected in Object=BUILDINGSURFACE:DETAILED, name=DIAGONAL-INTERIOR-WALL-FLOOR-5-SPACE-7 REVERSED
   **   ~~~   ** Field [Construction Name] is required but was blank
   ************* IDF Context for following error/warning message:
   ************* Note -- lines truncated at 300 characters, if necessary...
   *************   1532 BuildingSurface:Detailed,
   ************* indicated Name=diagonal-interior-wall-floor-5-space-8 Reversed
   ************* Only last 3 lines before error line shown.....
   *************   1533   diagonal-interior-wall-floor-5-space-8 Reversed, !- Name
   *************   1534   Wall,                                   !- Surface Type
   *************   1535   ,                                       !- Construction Name
   ** Severe  ** IP: IDF line~1535 Error detected in Object=BUILDINGSURFACE:DETAILED, name=DIAGONAL-INTERIOR-WALL-FLOOR-5-SPACE-8 REVERSED
   **   ~~~   ** Field [Construction Name] is required but was blank
   ************* IDF Context for following error/warning message:
   ************* Note -- lines truncated at 300 characters, if necessary...
   *************   1548 BuildingSurface:Detailed,
   ************* indicated Name=diagonal-interior-wall-floor-5-space-9 Reversed
   ************* Only last 3 lines before error line shown.....
   *************   1549   diagonal-interior-wall-floor-5-space-9 Reversed, !- Name
   *************   1550   Wall,                                   !- Surface Type
   *************   1551   ,                                       !- Construction Name
   ** Severe  ** IP: IDF line~1551 Error detected in Object=BUILDINGSURFACE:DETAILED, name=DIAGONAL-INTERIOR-WALL-FLOOR-5-SPACE-9 REVERSED
   **   ~~~   ** Field [Construction Name] is required but was blank
   ************* IDF Context for following error/warning message:
   ************* Note -- lines truncated at 300 characters, if necessary...
   *************   1564 BuildingSurface:Detailed,
   ************* indicated Name=exterior-wall-floor-1-space-1
   ************* Only last 3 lines before error line shown.....
   *************   1565   exterior-wall-floor-1-space-1,          !- Name
   *************   1566   Wall,                                   !- Surface Type
   *************   1567   ,                                       !- Construction Name
   ** Severe  ** IP: IDF line~1567 Error detected in Object=BUILDINGSURFACE:DETAILED, name=EXTERIOR-WALL-FLOOR-1-SPACE-1
   **   ~~~   ** Field [Construction Name] is required but was blank
   ************* IDF Context for following error/warning message:
   ************* Note -- lines truncated at 300 characters, if necessary...
   *************   1580 FenestrationSurface:Detailed,
   ************* indicated Name=bw-opening-3
   ************* Only last 3 lines before error line shown.....
   *************   1581   bw-opening-3,                           !- Name
   *************   1582   Window,                                 !- Surface Type
   *************   1583   ,                                       !- Construction Name
   ** Severe  ** IP: IDF line~1583 Error detected in Object=FENESTRATIONSURFACE:DETAILED, name=BW-OPENING-3
   **   ~~~   ** Field [Construction Name] is required but was blank
   ************* IDF Context for following error/warning message:
   ************* Note -- lines truncated at 300 characters, if necessary...
   *************   1596 BuildingSurface:Detailed,
   ************* indicated Name=floor-1-space-1
   ************* Only last 3 lines before error line shown.....
   *************   1597   floor-1-space-1,                        !- Name
   *************   1598   Floor,                                  !- Surface Type
   *************   1599   ,                                       !- Construction Name
   ** Severe  ** IP: IDF line~1599 Error detected in Object=BUILDINGSURFACE:DETAILED, name=FLOOR-1-SPACE-1
   **   ~~~   ** Field [Construction Name] is required but was blank
   ************* IDF Context for following error/warning message:
   ************* Note -- lines truncated at 300 characters, if necessary...
   *************   1612 BuildingSurface:Detailed,
   ************* indicated Name=interior-wall-floor-1-space-1
   ************* Only last 3 lines before error line shown.....
   *************   1613   interior-wall-floor-1-space-1,          !- Name
   *************   1614   Wall,                                   !- Surface Type
   *************   1615   ,                                       !- Construction Name
   ** Severe  ** IP: IDF line~1615 Error detected in Object=BUILDINGSURFACE:DETAILED, name=INTERIOR-WALL-FLOOR-1-SPACE-1
   **   ~~~   ** Field [Construction Name] is required but was blank
   ************* IDF Context for following error/warning message:
   ************* Note -- lines truncated at 300 characters, if necessary...
   *************   1642 BuildingSurface:Detailed,
   ************* indicated Name=diagonal-interior-wall-floor-1-space-10
   ************* Only last 3 lines before error line shown.....
   *************   1643   diagonal-interior-wall-floor-1-space-10, !- Name
   *************   1644   Wall,                                   !- Surface Type
   *************   1645   ,                                       !- Construction Name
   ** Severe  ** IP: IDF line~1645 Error detected in Object=BUILDINGSURFACE:DETAILED, name=DIAGONAL-INTERIOR-WALL-FLOOR-1-SPACE-10
   **   ~~~   ** Field [Construction Name] is required but was blank
   ************* IDF Context for following error/warning message:
   ************* Note -- lines truncated at 300 characters, if necessary...
   *************   1658 BuildingSurface:Detailed,
   ************* indicated Name=diagonal-interior-wall-floor-1-space-9 Reversed
   ************* Only last 3 lines before error line shown.....
   *************   1659   diagonal-interior-wall-floor-1-space-9 Reversed, !- Name
   *************   1660   Wall,                                   !- Surface Type
   *************   1661   ,                                       !- Construction Name
   ** Severe  ** IP: IDF line~1661 Error detected in Object=BUILDINGSURFACE:DETAILED, name=DIAGONAL-INTERIOR-WALL-FLOOR-1-SPACE-9 REVERSED
   **   ~~~   ** Field [Construction Name] is required but was blank
   ************* IDF Context for following error/warning message:
   ************* Note -- lines truncated at 300 characters, if necessary...
   *************   1674 BuildingSurface:Detailed,
   ************* indicated Name=exterior-wall-floor-1-space-10
   ************* Only last 3 lines before error line shown.....
   *************   1675   exterior-wall-floor-1-space-10,         !- Name
   *************   1676   Wall,                                   !- Surface Type
   *************   1677   ,                                       !- Construction Name
   ** Severe  ** IP: IDF line~1677 Error detected in Object=BUILDINGSURFACE:DETAILED, name=EXTERIOR-WALL-FLOOR-1-SPACE-10
   **   ~~~   ** Field [Construction Name] is required but was blank
   ************* IDF Context for following error/warning message:
   ************* Note -- lines truncated at 300 characters, if necessary...
   *************   1690 FenestrationSurface:Detailed,
   ************* indicated Name=bw-opening-39
   ************* Only last 3 lines before error line shown.....
   *************   1691   bw-opening-39,                          !- Name
   *************   1692   Window,                                 !- Surface Type
   *************   1693   ,                                       !- Construction Name
   ** Severe  ** IP: IDF line~1693 Error detected in Object=FENESTRATIONSURFACE:DETAILED, name=BW-OPENING-39
   **   ~~~   ** Field [Construction Name] is required but was blank
   ************* IDF Context for following error/warning message:
   ************* Note -- lines truncated at 300 characters, if necessary...
   *************   1706 BuildingSurface:Detailed,
   ************* indicated Name=floor-1-space-10
   ************* Only last 3 lines before error line shown.....
   *************   1707   floor-1-space-10,                       !- Name
   *************   1708   Floor,                                  !- Surface Type
   *************   1709   ,                                       !- Construction Name
   ** Severe  ** IP: IDF line~1709 Error detected in Object=BUILDINGSURFACE:DETAILED, name=FLOOR-1-SPACE-10
   **   ~~~   ** Field [Construction Name] is required but was blank
   ************* IDF Context for following error/warning message:
   ************* Note -- lines truncated at 300 characters, if necessary...
   *************   1722 BuildingSurface:Detailed,
   ************* indicated Name=interior-wall-floor-1-space-10
   ************* Only last 3 lines before error line shown.....
   *************   1723   interior-wall-floor-1-space-10,         !- Name
   *************   1724   Wall,                                   !- Surface Type
   *************   1725   ,                                       !- Construction Name
   ** Severe  ** IP: IDF line~1725 Error detected in Object=BUILDINGSURFACE:DETAILED, name=INTERIOR-WALL-FLOOR-1-SPACE-10
   **   ~~~   ** Field [Construction Name] is required but was blank
   ************* IDF Context for following error/warning message:
   ************* Note -- lines truncated at 300 characters, if necessary...
   *************   1752 BuildingSurface:Detailed,
   ************* indicated Name=diagonal-interior-wall-floor-1-space-10 Reversed
   ************* Only last 3 lines before error line shown.....
   *************   1753   diagonal-interior-wall-floor-1-space-10 Reversed, !- Name
   *************   1754   Wall,                                   !- Surface Type
   *************   1755   ,                                       !- Construction Name
   ** Severe  ** IP: IDF line~1755 Error detected in Object=BUILDINGSURFACE:DETAILED, name=DIAGONAL-INTERIOR-WALL-FLOOR-1-SPACE-10 REVERSED
   **   ~~~   ** Field [Construction Name] is required but was blank
   ************* IDF Context for following error/warning message:
   ************* Note -- lines truncated at 300 characters, if necessary...
   *************   1768 BuildingSurface:Detailed,
   ************* indicated Name=diagonal-interior-wall-floor-1-space-11
   ************* Only last 3 lines before error line shown.....
   *************   1769   diagonal-interior-wall-floor-1-space-11, !- Name
   *************   1770   Wall,                                   !- Surface Type
   *************   1771   ,                                       !- Construction Name
   ** Severe  ** IP: IDF line~1771 Error detected in Object=BUILDINGSURFACE:DETAILED, name=DIAGONAL-INTERIOR-WALL-FLOOR-1-SPACE-11
   **   ~~~   ** Field [Construction Name] is required but was blank
   ************* IDF Context for following error/warning message:
   ************* Note -- lines truncated at 300 characters, if necessary...
   *************   1784 BuildingSurface:Detailed,
   ************* indicated Name=exterior-wall-floor-1-space-11
   ************* Only last 3 lines before error line shown.....
   *************   1785   exterior-wall-floor-1-space-11,         !- Name
   *************   1786   Wall,                                   !- Surface Type
   *************   1787   ,                                       !- Construction Name
   ** Severe  ** IP: IDF line~1787 Error detected in Object=BUILDINGSURFACE:DETAILED, name=EXTERIOR-WALL-FLOOR-1-SPACE-11
   **   ~~~   ** Field [Construction Name] is required but was blank
   ************* IDF Context for following error/warning message:
   ************* Note -- lines truncated at 300 characters, if necessary...
   *************   1800 FenestrationSurface:Detailed,
   ************* indicated Name=bw-opening-43
   ************* Only last 3 lines before error line shown.....
   *************   1801   bw-opening-43,                          !- Name
   *************   1802   Window,                                 !- Surface Type
   *************   1803   ,                                       !- Construction Name
   ** Severe  ** IP: IDF line~1803 Error detected in Object=FENESTRATIONSURFACE:DETAILED, name=BW-OPENING-43
   **   ~~~   ** Field [Construction Name] is required but was blank
   ************* IDF Context for following error/warning message:
   ************* Note -- lines truncated at 300 characters, if necessary...
   *************   1816 BuildingSurface:Detailed,
   ************* indicated Name=floor-1-space-11
   ************* Only last 3 lines before error line shown.....
   *************   1817   floor-1-space-11,                       !- Name
   *************   1818   Floor,                                  !- Surface Type
   *************   1819   ,                                       !- Construction Name
   ** Severe  ** IP: IDF line~1819 Error detected in Object=BUILDINGSURFACE:DETAILED, name=FLOOR-1-SPACE-11
   **   ~~~   ** Field [Construction Name] is required but was blank
   ************* IDF Context for following error/warning message:
   ************* Note -- lines truncated at 300 characters, if necessary...
   *************   1832 BuildingSurface:Detailed,
   ************* indicated Name=interior-wall-floor-1-space-11
   ************* Only last 3 lines before error line shown.....
   *************   1833   interior-wall-floor-1-space-11,         !- Name
   *************   1834   Wall,                                   !- Surface Type
   *************   1835   ,                                       !- Construction Name
   ** Severe  ** IP: IDF line~1835 Error detected in Object=BUILDINGSURFACE:DETAILED, name=INTERIOR-WALL-FLOOR-1-SPACE-11
   **   ~~~   ** Field [Construction Name] is required but was blank
   ************* IDF Context for following error/warning message:
   ************* Note -- lines truncated at 300 characters, if necessary...
   *************   1862 BuildingSurface:Detailed,
   ************* indicated Name=diagonal-interior-wall-floor-1-space-11 Reversed
   ************* Only last 3 lines before error line shown.....
   *************   1863   diagonal-interior-wall-floor-1-space-11 Reversed, !- Name
   *************   1864   Wall,                                   !- Surface Type
   *************   1865   ,                                       !- Construction Name
   ** Severe  ** IP: IDF line~1865 Error detected in Object=BUILDINGSURFACE:DETAILED, name=DIAGONAL-INTERIOR-WALL-FLOOR-1-SPACE-11 REVERSED
   **   ~~~   ** Field [Construction Name] is required but was blank
   ************* IDF Context for following error/warning message:
   ************* Note -- lines truncated at 300 characters, if necessary...
   *************   1878 BuildingSurface:Detailed,
   ************* indicated Name=diagonal-interior-wall-floor-1-space-12
   ************* Only last 3 lines before error line shown.....
   *************   1879   diagonal-interior-wall-floor-1-space-12, !- Name
   *************   1880   Wall,                                   !- Surface Type
   *************   1881   ,                                       !- Construction Name
   ** Severe  ** IP: IDF line~1881 Error detected in Object=BUILDINGSURFACE:DETAILED, name=DIAGONAL-INTERIOR-WALL-FLOOR-1-SPACE-12
   **   ~~~   ** Field [Construction Name] is required but was blank
   ************* IDF Context for following error/warning message:
   ************* Note -- lines truncated at 300 characters, if necessary...
   *************   1894 BuildingSurface:Detailed,
   ************* indicated Name=exterior-wall-floor-1-space-12
   ************* Only last 3 lines before error line shown.....
   *************   1895   exterior-wall-floor-1-space-12,         !- Name
   *************   1896   Wall,                                   !- Surface Type
   *************   1897   ,                                       !- Construction Name
   ** Severe  ** IP: IDF line~1897 Error detected in Object=BUILDINGSURFACE:DETAILED, name=EXTERIOR-WALL-FLOOR-1-SPACE-12
   **   ~~~   ** Field [Construction Name] is required but was blank
   ************* IDF Context for following error/warning message:
   ************* Note -- lines truncated at 300 characters, if necessary...
   *************   1910 FenestrationSurface:Detailed,
   ************* indicated Name=bw-opening-47
   ************* Only last 3 lines before error line shown.....
   *************   1911   bw-opening-47,                          !- Name
   *************   1912   Window,                                 !- Surface Type
   *************   1913   ,                                       !- Construction Name
   ** Severe  ** IP: IDF line~1913 Error detected in Object=FENESTRATIONSURFACE:DETAILED, name=BW-OPENING-47
   **   ~~~   ** Field [Construction Name] is required but was blank
   ************* IDF Context for following error/warning message:
   ************* Note -- lines truncated at 300 characters, if necessary...
   *************   1926 BuildingSurface:Detailed,
   ************* indicated Name=floor-1-space-12
   ************* Only last 3 lines before error line shown.....
   *************   1927   floor-1-space-12,                       !- Name
   *************   1928   Floor,                                  !- Surface Type
   *************   1929   ,                                       !- Construction Name
   ** Severe  ** IP: IDF line~1929 Error detected in Object=BUILDINGSURFACE:DETAILED, name=FLOOR-1-SPACE-12
   **   ~~~   ** Field [Construction Name] is required but was blank
   ************* IDF Context for following error/warning message:
   ************* Note -- lines truncated at 300 characters, if necessary...
   *************   1942 BuildingSurface:Detailed,
   ************* indicated Name=interior-wall-floor-1-space-1 Reversed
   ************* Only last 3 lines before error line shown.....
   *************   1943   interior-wall-floor-1-space-1 Reversed, !- Name
   *************   1944   Wall,                                   !- Surface Type
   *************   1945   ,                                       !- Construction Name
   ** Severe  ** IP: IDF line~1945 Error detected in Object=BUILDINGSURFACE:DETAILED, name=INTERIOR-WALL-FLOOR-1-SPACE-1 REVERSED
   **   ~~~   ** Field [Construction Name] is required but was blank
   ************* IDF Context for following error/warning message:
   ************* Note -- lines truncated at 300 characters, if necessary...
   *************   1958 BuildingSurface:Detailed,
   ************* indicated Name=interior-wall-floor-1-space-10 Reversed
   ************* Only last 3 lines before error line shown.....
   *************   1959   interior-wall-floor-1-space-10 Reversed, !- Name
   *************   1960   Wall,                                   !- Surface Type
   *************   1961   ,                                       !- Construction Name
   ** Severe  ** IP: IDF line~1961 Error detected in Object=BUILDINGSURFACE:DETAILED, name=INTERIOR-WALL-FLOOR-1-SPACE-10 REVERSED
   **   ~~~   ** Field [Construction Name] is required but was blank
   ************* IDF Context for following error/warning message:
   ************* Note -- lines truncated at 300 characters, if necessary...
   *************   1974 BuildingSurface:Detailed,
   ************* indicated Name=interior-wall-floor-1-space-11 Reversed
   ************* Only last 3 lines before error line shown.....
   *************   1975   interior-wall-floor-1-space-11 Reversed, !- Name
   *************   1976   Wall,                                   !- Surface Type
   *************   1977   ,                                       !- Construction Name
   ** Severe  ** IP: IDF line~1977 Error detected in Object=BUILDINGSURFACE:DETAILED, name=INTERIOR-WALL-FLOOR-1-SPACE-11 REVERSED
   **   ~~~   ** Field [Construction Name] is required but was blank
   ************* IDF Context for following error/warning message:
   ************* Note -- lines truncated at 300 characters, if necessary...
   *************   1990 BuildingSurface:Detailed,
   ************* indicated Name=interior-wall-floor-1-space-12
   ************* Only last 3 lines before error line shown.....
   *************   1991   interior-wall-floor-1-space-12,         !- Name
   *************   1992   Wall,                                   !- Surface Type
   *************   1993   ,                                       !- Construction Name
   ** Severe  ** IP: IDF line~1993 Error detected in Object=BUILDINGSURFACE:DETAILED, name=INTERIOR-WALL-FLOOR-1-SPACE-12
   **   ~~~   ** Field [Construction Name] is required but was blank
   ************* IDF Context for following error/warning message:
   ************* Note -- lines truncated at 300 characters, if necessary...
   *************   2006 BuildingSurface:Detailed,
   ************* indicated Name=interior-wall-floor-1-space-2 Reversed
   ************* Only last 3 lines before error line shown.....
   *************   2007   interior-wall-floor-1-space-2 Reversed, !- Name
   *************   2008   Wall,                                   !- Surface Type
   *************   2009   ,                                       !- Construction Name
   ** Severe  ** IP: IDF line~2009 Error detected in Object=BUILDINGSURFACE:DETAILED, name=INTERIOR-WALL-FLOOR-1-SPACE-2 REVERSED
   **   ~~~   ** Field [Construction Name] is required but was blank
   ************* IDF Context for following error/warning message:
   ************* Note -- lines truncated at 300 characters, if necessary...
   *************   2022 BuildingSurface:Detailed,
   ************* indicated Name=interior-wall-floor-1-space-3 Reversed
   ************* Only last 3 lines before error line shown.....
   *************   2023   interior-wall-floor-1-space-3 Reversed, !- Name
   *************   2024   Wall,                                   !- Surface Type
   *************   2025   ,                                       !- Construction Name
   ** Severe  ** IP: IDF line~2025 Error detected in Object=BUILDINGSURFACE:DETAILED, name=INTERIOR-WALL-FLOOR-1-SPACE-3 REVERSED
   **   ~~~   ** Field [Construction Name] is required but was blank
   ************* IDF Context for following error/warning message:
   ************* Note -- lines truncated at 300 characters, if necessary...
   *************   2038 BuildingSurface:Detailed,
   ************* indicated Name=interior-wall-floor-1-space-4 Reversed
   ************* Only last 3 lines before error line shown.....
   *************   2039   interior-wall-floor-1-space-4 Reversed, !- Name
   *************   2040   Wall,                                   !- Surface Type
   *************   2041   ,                                       !- Construction Name
   ** Severe  ** IP: IDF line~2041 Error detected in Object=BUILDINGSURFACE:DETAILED, name=INTERIOR-WALL-FLOOR-1-SPACE-4 REVERSED
   **   ~~~   ** Field [Construction Name] is required but was blank
   ************* IDF Context for following error/warning message:
   ************* Note -- lines truncated at 300 characters, if necessary...
   *************   2054 BuildingSurface:Detailed,
   ************* indicated Name=interior-wall-floor-1-space-5 Reversed
   ************* Only last 3 lines before error line shown.....
   *************   2055   interior-wall-floor-1-space-5 Reversed, !- Name
   *************   2056   Wall,                                   !- Surface Type
   *************   2057   ,                                       !- Construction Name
   ** Severe  ** IP: IDF line~2057 Error detected in Object=BUILDINGSURFACE:DETAILED, name=INTERIOR-WALL-FLOOR-1-SPACE-5 REVERSED
   **   ~~~   ** Field [Construction Name] is required but was blank
   ************* IDF Context for following error/warning message:
   ************* Note -- lines truncated at 300 characters, if necessary...
   *************   2070 BuildingSurface:Detailed,
   ************* indicated Name=interior-wall-floor-1-space-6 Reversed
   ************* Only last 3 lines before error line shown.....
   *************   2071   interior-wall-floor-1-space-6 Reversed, !- Name
   *************   2072   Wall,                                   !- Surface Type
   *************   2073   ,                                       !- Construction Name
   ** Severe  ** IP: IDF line~2073 Error detected in Object=BUILDINGSURFACE:DETAILED, name=INTERIOR-WALL-FLOOR-1-SPACE-6 REVERSED
   **   ~~~   ** Field [Construction Name] is required but was blank
   ************* IDF Context for following error/warning message:
   ************* Note -- lines truncated at 300 characters, if necessary...
   *************   2086 BuildingSurface:Detailed,
   ************* indicated Name=interior-wall-floor-1-space-7 Reversed
   ************* Only last 3 lines before error line shown.....
   *************   2087   interior-wall-floor-1-space-7 Reversed, !- Name
   *************   2088   Wall,                                   !- Surface Type
   *************   2089   ,                                       !- Construction Name
   ** Severe  ** IP: IDF line~2089 Error detected in Object=BUILDINGSURFACE:DETAILED, name=INTERIOR-WALL-FLOOR-1-SPACE-7 REVERSED
   **   ~~~   ** Field [Construction Name] is required but was blank
   ************* IDF Context for following error/warning message:
   ************* Note -- lines truncated at 300 characters, if necessary...
   *************   2102 BuildingSurface:Detailed,
   ************* indicated Name=interior-wall-floor-1-space-8 Reversed
   ************* Only last 3 lines before error line shown.....
   *************   2103   interior-wall-floor-1-space-8 Reversed, !- Name
   *************   2104   Wall,                                   !- Surface Type
   *************   2105   ,                                       !- Construction Name
   ** Severe  ** IP: IDF line~2105 Error detected in Object=BUILDINGSURFACE:DETAILED, name=INTERIOR-WALL-FLOOR-1-SPACE-8 REVERSED
   **   ~~~   ** Field [Construction Name] is required but was blank
   ************* IDF Context for following error/warning message:
   ************* Note -- lines truncated at 300 characters, if necessary...
   *************   2118 BuildingSurface:Detailed,
   ************* indicated Name=interior-wall-floor-1-space-9 Reversed
   ************* Only last 3 lines before error line shown.....
   *************   2119   interior-wall-floor-1-space-9 Reversed, !- Name
   *************   2120   Wall,                                   !- Surface Type
   *************   2121   ,                                       !- Construction Name
   ** Severe  ** IP: IDF line~2121 Error detected in Object=BUILDINGSURFACE:DETAILED, name=INTERIOR-WALL-FLOOR-1-SPACE-9 REVERSED
   **   ~~~   ** Field [Construction Name] is required but was blank
   ************* IDF Context for following error/warning message:
   ************* Note -- lines truncated at 300 characters, if necessary...
   *************   2134 BuildingSurface:Detailed,
   ************* indicated Name=interior-wall-floor-2-space-11 Reversed
   ************* Only last 3 lines before error line shown.....
   *************   2135   interior-wall-floor-2-space-11 Reversed, !- Name
   *************   2136   Wall,                                   !- Surface Type
   *************   2137   ,                                       !- Construction Name
   ** Severe  ** IP: IDF line~2137 Error detected in Object=BUILDINGSURFACE:DETAILED, name=INTERIOR-WALL-FLOOR-2-SPACE-11 REVERSED
   **   ~~~   ** Field [Construction Name] is required but was blank
   ************* IDF Context for following error/warning message:
   ************* Note -- lines truncated at 300 characters, if necessary...
   *************   2164 BuildingSurface:Detailed,
   ************* indicated Name=slab-floor-0
   ************* Only last 3 lines before error line shown.....
   *************   2165   slab-floor-0,                           !- Name
   *************   2166   Floor,                                  !- Surface Type
   *************   2167   ,                                       !- Construction Name
   ** Severe  ** IP: IDF line~2167 Error detected in Object=BUILDINGSURFACE:DETAILED, name=SLAB-FLOOR-0
   **   ~~~   ** Field [Construction Name] is required but was blank
   ************* IDF Context for following error/warning message:
   ************* Note -- lines truncated at 300 characters, if necessary...
   *************   2202 BuildingSurface:Detailed,
   ************* indicated Name=diagonal-interior-wall-floor-1-space-1 Reversed
   ************* Only last 3 lines before error line shown.....
   *************   2203   diagonal-interior-wall-floor-1-space-1 Reversed, !- Name
   *************   2204   Wall,                                   !- Surface Type
   *************   2205   ,                                       !- Construction Name
   ** Severe  ** IP: IDF line~2205 Error detected in Object=BUILDINGSURFACE:DETAILED, name=DIAGONAL-INTERIOR-WALL-FLOOR-1-SPACE-1 REVERSED
   **   ~~~   ** Field [Construction Name] is required but was blank
   ************* IDF Context for following error/warning message:
   ************* Note -- lines truncated at 300 characters, if necessary...
   *************   2218 BuildingSurface:Detailed,
   ************* indicated Name=diagonal-interior-wall-floor-1-space-2
   ************* Only last 3 lines before error line shown.....
   *************   2219   diagonal-interior-wall-floor-1-space-2, !- Name
   *************   2220   Wall,                                   !- Surface Type
   *************   2221   ,                                       !- Construction Name
   ** Severe  ** IP: IDF line~2221 Error detected in Object=BUILDINGSURFACE:DETAILED, name=DIAGONAL-INTERIOR-WALL-FLOOR-1-SPACE-2
   **   ~~~   ** Field [Construction Name] is required but was blank
   ************* IDF Context for following error/warning message:
   ************* Note -- lines truncated at 300 characters, if necessary...
   *************   2234 BuildingSurface:Detailed,
   ************* indicated Name=exterior-wall-floor-1-space-2
   ************* Only last 3 lines before error line shown.....
   *************   2235   exterior-wall-floor-1-space-2,          !- Name
   *************   2236   Wall,                                   !- Surface Type
   *************   2237   ,                                       !- Construction Name
   ** Severe  ** IP: IDF line~2237 Error detected in Object=BUILDINGSURFACE:DETAILED, name=EXTERIOR-WALL-FLOOR-1-SPACE-2
   **   ~~~   ** Field [Construction Name] is required but was blank
   ************* IDF Context for following error/warning message:
   ************* Note -- lines truncated at 300 characters, if necessary...
   *************   2250 FenestrationSurface:Detailed,
   ************* indicated Name=bw-opening-7
   ************* Only last 3 lines before error line shown.....
   *************   2251   bw-opening-7,                           !- Name
   *************   2252   Window,                                 !- Surface Type
   *************   2253   ,                                       !- Construction Name
   ** Severe  ** IP: IDF line~2253 Error detected in Object=FENESTRATIONSURFACE:DETAILED, name=BW-OPENING-7
   **   ~~~   ** Field [Construction Name] is required but was blank
   ************* IDF Context for following error/warning message:
   ************* Note -- lines truncated at 300 characters, if necessary...
   *************   2266 BuildingSurface:Detailed,
   ************* indicated Name=floor-1-space-2
   ************* Only last 3 lines before error line shown.....
   *************   2267   floor-1-space-2,                        !- Name
   *************   2268   Floor,                                  !- Surface Type
   *************   2269   ,                                       !- Construction Name
   ** Severe  ** IP: IDF line~2269 Error detected in Object=BUILDINGSURFACE:DETAILED, name=FLOOR-1-SPACE-2
   **   ~~~   ** Field [Construction Name] is required but was blank
   ************* IDF Context for following error/warning message:
   ************* Note -- lines truncated at 300 characters, if necessary...
   *************   2282 BuildingSurface:Detailed,
   ************* indicated Name=interior-wall-floor-1-space-2
   ************* Only last 3 lines before error line shown.....
   *************   2283   interior-wall-floor-1-space-2,          !- Name
   *************   2284   Wall,                                   !- Surface Type
   *************   2285   ,                                       !- Construction Name
   ** Severe  ** IP: IDF line~2285 Error detected in Object=BUILDINGSURFACE:DETAILED, name=INTERIOR-WALL-FLOOR-1-SPACE-2
   **   ~~~   ** Field [Construction Name] is required but was blank
   ************* IDF Context for following error/warning message:
   ************* Note -- lines truncated at 300 characters, if necessary...
   *************   2312 BuildingSurface:Detailed,
   ************* indicated Name=diagonal-interior-wall-floor-1-space-2 Reversed
   ************* Only last 3 lines before error line shown.....
   *************   2313   diagonal-interior-wall-floor-1-space-2 Reversed, !- Name
   *************   2314   Wall,                                   !- Surface Type
   *************   2315   ,                                       !- Construction Name
   ** Severe  ** IP: IDF line~2315 Error detected in Object=BUILDINGSURFACE:DETAILED, name=DIAGONAL-INTERIOR-WALL-FLOOR-1-SPACE-2 REVERSED
   **   ~~~   ** Field [Construction Name] is required but was blank
   ************* IDF Context for following error/warning message:
   ************* Note -- lines truncated at 300 characters, if necessary...
   *************   2328 BuildingSurface:Detailed,
   ************* indicated Name=diagonal-interior-wall-floor-1-space-3
   ************* Only last 3 lines before error line shown.....
   *************   2329   diagonal-interior-wall-floor-1-space-3, !- Name
   *************   2330   Wall,                                   !- Surface Type
   *************   2331   ,                                       !- Construction Name
   ** Severe  ** IP: IDF line~2331 Error detected in Object=BUILDINGSURFACE:DETAILED, name=DIAGONAL-INTERIOR-WALL-FLOOR-1-SPACE-3
   **   ~~~   ** Field [Construction Name] is required but was blank
   ************* IDF Context for following error/warning message:
   ************* Note -- lines truncated at 300 characters, if necessary...
   *************   2344 BuildingSurface:Detailed,
   ************* indicated Name=exterior-wall-floor-1-space-3
   ************* Only last 3 lines before error line shown.....
   *************   2345   exterior-wall-floor-1-space-3,          !- Name
   *************   2346   Wall,                                   !- Surface Type
   *************   2347   ,                                       !- Construction Name
   ** Severe  ** IP: IDF line~2347 Error detected in Object=BUILDINGSURFACE:DETAILED, name=EXTERIOR-WALL-FLOOR-1-SPACE-3
   **   ~~~   ** Field [Construction Name] is required but was blank
   ************* IDF Context for following error/warning message:
   ************* Note -- lines truncated at 300 characters, if necessary...
   *************   2360 FenestrationSurface:Detailed,
   ************* indicated Name=bw-opening-11
   ************* Only last 3 lines before error line shown.....
   *************   2361   bw-opening-11,                          !- Name
   *************   2362   Window,                                 !- Surface Type
   *************   2363   ,                                       !- Construction Name
   ** Severe  ** IP: IDF line~2363 Error detected in Object=FENESTRATIONSURFACE:DETAILED, name=BW-OPENING-11
   **   ~~~   ** Field [Construction Name] is required but was blank
   ************* IDF Context for following error/warning message:
   ************* Note -- lines truncated at 300 characters, if necessary...
   *************   2376 BuildingSurface:Detailed,
   ************* indicated Name=floor-1-space-3
   ************* Only last 3 lines before error line shown.....
   *************   2377   floor-1-space-3,                        !- Name
   *************   2378   Floor,                                  !- Surface Type
   *************   2379   ,                                       !- Construction Name
   ** Severe  ** IP: IDF line~2379 Error detected in Object=BUILDINGSURFACE:DETAILED, name=FLOOR-1-SPACE-3
   **   ~~~   ** Field [Construction Name] is required but was blank
   ************* IDF Context for following error/warning message:
   ************* Note -- lines truncated at 300 characters, if necessary...
   *************   2392 BuildingSurface:Detailed,
   ************* indicated Name=interior-wall-floor-1-space-3
   ************* Only last 3 lines before error line shown.....
   *************   2393   interior-wall-floor-1-space-3,          !- Name
   *************   2394   Wall,                                   !- Surface Type
   *************   2395   ,                                       !- Construction Name
   ** Severe  ** IP: IDF line~2395 Error detected in Object=BUILDINGSURFACE:DETAILED, name=INTERIOR-WALL-FLOOR-1-SPACE-3
   **   ~~~   ** Field [Construction Name] is required but was blank
   ************* IDF Context for following error/warning message:
   ************* Note -- lines truncated at 300 characters, if necessary...
   *************   2422 BuildingSurface:Detailed,
   ************* indicated Name=diagonal-interior-wall-floor-1-space-3 Reversed
   ************* Only last 3 lines before error line shown.....
   *************   2423   diagonal-interior-wall-floor-1-space-3 Reversed, !- Name
   *************   2424   Wall,                                   !- Surface Type
   *************   2425   ,                                       !- Construction Name
   ** Severe  ** IP: IDF line~2425 Error detected in Object=BUILDINGSURFACE:DETAILED, name=DIAGONAL-INTERIOR-WALL-FLOOR-1-SPACE-3 REVERSED
   **   ~~~   ** Field [Construction Name] is required but was blank
   ************* IDF Context for following error/warning message:
   ************* Note -- lines truncated at 300 characters, if necessary...
   *************   2438 BuildingSurface:Detailed,
   ************* indicated Name=diagonal-interior-wall-floor-1-space-4
   ************* Only last 3 lines before error line shown.....
   *************   2439   diagonal-interior-wall-floor-1-space-4, !- Name
   *************   2440   Wall,                                   !- Surface Type
   *************   2441   ,                                       !- Construction Name
   ** Severe  ** IP: IDF line~2441 Error detected in Object=BUILDINGSURFACE:DETAILED, name=DIAGONAL-INTERIOR-WALL-FLOOR-1-SPACE-4
   **   ~~~   ** Field [Construction Name] is required but was blank
   ************* IDF Context for following error/warning message:
   ************* Note -- lines truncated at 300 characters, if necessary...
   *************   2454 BuildingSurface:Detailed,
   ************* indicated Name=exterior-wall-floor-1-space-4
   ************* Only last 3 lines before error line shown.....
   *************   2455   exterior-wall-floor-1-space-4,          !- Name
   *************   2456   Wall,                                   !- Surface Type
   *************   2457   ,                                       !- Construction Name
   ** Severe  ** IP: IDF line~2457 Error detected in Object=BUILDINGSURFACE:DETAILED, name=EXTERIOR-WALL-FLOOR-1-SPACE-4
   **   ~~~   ** Field [Construction Name] is required but was blank
   ************* IDF Context for following error/warning message:
   ************* Note -- lines truncated at 300 characters, if necessary...
   *************   2470 FenestrationSurface:Detailed,
   ************* indicated Name=bw-opening-15
   ************* Only last 3 lines before error line shown.....
   *************   2471   bw-opening-15,                          !- Name
   *************   2472   Window,                                 !- Surface Type
   *************   2473   ,                                       !- Construction Name
   ** Severe  ** IP: IDF line~2473 Error detected in Object=FENESTRATIONSURFACE:DETAILED, name=BW-OPENING-15
   **   ~~~   ** Field [Construction Name] is required but was blank
   ************* IDF Context for following error/warning message:
   ************* Note -- lines truncated at 300 characters, if necessary...
   *************   2486 BuildingSurface:Detailed,
   ************* indicated Name=floor-1-space-4
   ************* Only last 3 lines before error line shown.....
   *************   2487   floor-1-space-4,                        !- Name
   *************   2488   Floor,                                  !- Surface Type
   *************   2489   ,                                       !- Construction Name
   ** Severe  ** IP: IDF line~2489 Error detected in Object=BUILDINGSURFACE:DETAILED, name=FLOOR-1-SPACE-4
   **   ~~~   ** Field [Construction Name] is required but was blank
   ************* IDF Context for following error/warning message:
   ************* Note -- lines truncated at 300 characters, if necessary...
   *************   2502 BuildingSurface:Detailed,
   ************* indicated Name=interior-wall-floor-1-space-4
   ************* Only last 3 lines before error line shown.....
   *************   2503   interior-wall-floor-1-space-4,          !- Name
   *************   2504   Wall,                                   !- Surface Type
   *************   2505   ,                                       !- Construction Name
   ** Severe  ** IP: IDF line~2505 Error detected in Object=BUILDINGSURFACE:DETAILED, name=INTERIOR-WALL-FLOOR-1-SPACE-4
   **   ~~~   ** Field [Construction Name] is required but was blank
   ************* IDF Context for following error/warning message:
[...]
   *************   8214   Wall,                                   !- Surface Type
   *************   8215   ,                                       !- Construction Name
   ** Severe  ** IP: IDF line~8215 Error detected in Object=BUILDINGSURFACE:DETAILED, name=DIAGONAL-INTERIOR-WALL-FLOOR-5-SPACE-9
   **   ~~~   ** Field [Construction Name] is required but was blank
   ************* IDF Context for following error/warning message:
   ************* Note -- lines truncated at 300 characters, if necessary...
   *************   8228 BuildingSurface:Detailed,
   ************* indicated Name=exterior-wall-floor-5-space-9
   ************* Only last 3 lines before error line shown.....
   *************   8229   exterior-wall-floor-5-space-9,          !- Name
   *************   8230   Wall,                                   !- Surface Type
   *************   8231   ,                                       !- Construction Name
   ** Severe  ** IP: IDF line~8231 Error detected in Object=BUILDINGSURFACE:DETAILED, name=EXTERIOR-WALL-FLOOR-5-SPACE-9
   **   ~~~   ** Field [Construction Name] is required but was blank
   ************* IDF Context for following error/warning message:
   ************* Note -- lines truncated at 300 characters, if necessary...
   *************   8244 FenestrationSurface:Detailed,
   ************* indicated Name=bw-opening-244
   ************* Only last 3 lines before error line shown.....
   *************   8245   bw-opening-244,                         !- Name
   *************   8246   Window,                                 !- Surface Type
   *************   8247   ,                                       !- Construction Name
   ** Severe  ** IP: IDF line~8247 Error detected in Object=FENESTRATIONSURFACE:DETAILED, name=BW-OPENING-244
   **   ~~~   ** Field [Construction Name] is required but was blank
   ************* IDF Context for following error/warning message:
   ************* Note -- lines truncated at 300 characters, if necessary...
   *************   8260 BuildingSurface:Detailed,
   ************* indicated Name=floor-5-space-9
   ************* Only last 3 lines before error line shown.....
   *************   8261   floor-5-space-9,                        !- Name
   *************   8262   Floor,                                  !- Surface Type
   *************   8263   ,                                       !- Construction Name
   ** Severe  ** IP: IDF line~8263 Error detected in Object=BUILDINGSURFACE:DETAILED, name=FLOOR-5-SPACE-9
   **   ~~~   ** Field [Construction Name] is required but was blank
   ************* IDF Context for following error/warning message:
   ************* Note -- lines truncated at 300 characters, if necessary...
   *************   8276 BuildingSurface:Detailed,
   ************* indicated Name=interior-wall-floor-5-space-9
   ************* Only last 3 lines before error line shown.....
   *************   8277   interior-wall-floor-5-space-9,          !- Name
   *************   8278   Wall,                                   !- Surface Type
   *************   8279   ,                                       !- Construction Name
   ** Severe  ** IP: IDF line~8279 Error detected in Object=BUILDINGSURFACE:DETAILED, name=INTERIOR-WALL-FLOOR-5-SPACE-9
   **   ~~~   ** Field [Construction Name] is required but was blank
   ************* IDF Context for following error/warning message:
   ************* Note -- lines truncated at 300 characters, if necessary...
   *************   8292 BuildingSurface:Detailed,
   ************* indicated Name=roof-floor-5-space-9
   ************* Only last 3 lines before error line shown.....
   *************   8293   roof-floor-5-space-9,                   !- Name
   *************   8294   Roof,                                   !- Surface Type
   *************   8295   ,                                       !- Construction Name
   ** Severe  ** IP: IDF line~8295 Error detected in Object=BUILDINGSURFACE:DETAILED, name=ROOF-FLOOR-5-SPACE-9
   **   ~~~   ** Field [Construction Name] is required but was blank
   ************* IDF Context for following error/warning message:
   ************* Note -- lines truncated at 300 characters, if necessary...
   *************   8322 BuildingSurface:Detailed,
   ************* indicated Name=diagonal-interior-wall-floor-5-space-10
   ************* Only last 3 lines before error line shown.....
   *************   8323   diagonal-interior-wall-floor-5-space-10, !- Name
   *************   8324   Wall,                                   !- Surface Type
   *************   8325   ,                                       !- Construction Name
   ** Severe  ** IP: IDF line~8325 Error detected in Object=BUILDINGSURFACE:DETAILED, name=DIAGONAL-INTERIOR-WALL-FLOOR-5-SPACE-10
   **   ~~~   ** Field [Construction Name] is required but was blank
   ************* IDF Context for following error/warning message:
   ************* Note -- lines truncated at 300 characters, if necessary...
   *************   8338 BuildingSurface:Detailed,
   ************* indicated Name=exterior-wall-floor-5-space-10
   ************* Only last 3 lines before error line shown.....
   *************   8339   exterior-wall-floor-5-space-10,         !- Name
   *************   8340   Wall,                                   !- Surface Type
   *************   8341   ,                                       !- Construction Name
   ** Severe  ** IP: IDF line~8341 Error detected in Object=BUILDINGSURFACE:DETAILED, name=EXTERIOR-WALL-FLOOR-5-SPACE-10
   **   ~~~   ** Field [Construction Name] is required but was blank
   ************* IDF Context for following error/warning message:
   ************* Note -- lines truncated at 300 characters, if necessary...
   *************   8354 FenestrationSurface:Detailed,
   ************* indicated Name=bw-opening-249
   ************* Only last 3 lines before error line shown.....
   *************   8355   bw-opening-249,                         !- Name
   *************   8356   Window,                                 !- Surface Type
   *************   8357   ,                                       !- Construction Name
   ** Severe  ** IP: IDF line~8357 Error detected in Object=FENESTRATIONSURFACE:DETAILED, name=BW-OPENING-249
   **   ~~~   ** Field [Construction Name] is required but was blank
   ************* IDF Context for following error/warning message:
   ************* Note -- lines truncated at 300 characters, if necessary...
   *************   8370 BuildingSurface:Detailed,
   ************* indicated Name=floor-5-space-10
   ************* Only last 3 lines before error line shown.....
   *************   8371   floor-5-space-10,                       !- Name
   *************   8372   Floor,                                  !- Surface Type
   *************   8373   ,                                       !- Construction Name
   ** Severe  ** IP: IDF line~8373 Error detected in Object=BUILDINGSURFACE:DETAILED, name=FLOOR-5-SPACE-10
   **   ~~~   ** Field [Construction Name] is required but was blank
   ************* IDF Context for following error/warning message:
   ************* Note -- lines truncated at 300 characters, if necessary...
   *************   8386 BuildingSurface:Detailed,
   ************* indicated Name=interior-wall-floor-5-space-10
   ************* Only last 3 lines before error line shown.....
   *************   8387   interior-wall-floor-5-space-10,         !- Name
   *************   8388   Wall,                                   !- Surface Type
   *************   8389   ,                                       !- Construction Name
   ** Severe  ** IP: IDF line~8389 Error detected in Object=BUILDINGSURFACE:DETAILED, name=INTERIOR-WALL-FLOOR-5-SPACE-10
   **   ~~~   ** Field [Construction Name] is required but was blank
   ************* IDF Context for following error/warning message:
   ************* Note -- lines truncated at 300 characters, if necessary...
   *************   8402 BuildingSurface:Detailed,
   ************* indicated Name=roof-floor-5-space-10
   ************* Only last 3 lines before error line shown.....
   *************   8403   roof-floor-5-space-10,                  !- Name
   *************   8404   Roof,                                   !- Surface Type
   *************   8405   ,                                       !- Construction Name
   ** Severe  ** IP: IDF line~8405 Error detected in Object=BUILDINGSURFACE:DETAILED, name=ROOF-FLOOR-5-SPACE-10
   **   ~~~   ** Field [Construction Name] is required but was blank
   ************* IDF Context for following error/warning message:
   ************* Note -- lines truncated at 300 characters, if necessary...
   *************   8432 BuildingSurface:Detailed,
   ************* indicated Name=diagonal-interior-wall-floor-5-space-11
   ************* Only last 3 lines before error line shown.....
   *************   8433   diagonal-interior-wall-floor-5-space-11, !- Name
   *************   8434   Wall,                                   !- Surface Type
   *************   8435   ,                                       !- Construction Name
   ** Severe  ** IP: IDF line~8435 Error detected in Object=BUILDINGSURFACE:DETAILED, name=DIAGONAL-INTERIOR-WALL-FLOOR-5-SPACE-11
   **   ~~~   ** Field [Construction Name] is required but was blank
   ************* IDF Context for following error/warning message:
   ************* Note -- lines truncated at 300 characters, if necessary...
   *************   8448 BuildingSurface:Detailed,
   ************* indicated Name=exterior-wall-floor-5-space-11
   ************* Only last 3 lines before error line shown.....
   *************   8449   exterior-wall-floor-5-space-11,         !- Name
   *************   8450   Wall,                                   !- Surface Type
   *************   8451   ,                                       !- Construction Name
   ** Severe  ** IP: IDF line~8451 Error detected in Object=BUILDINGSURFACE:DETAILED, name=EXTERIOR-WALL-FLOOR-5-SPACE-11
   **   ~~~   ** Field [Construction Name] is required but was blank
   ************* IDF Context for following error/warning message:
   ************* Note -- lines truncated at 300 characters, if necessary...
   *************   8464 FenestrationSurface:Detailed,
   ************* indicated Name=bw-opening-254
   ************* Only last 3 lines before error line shown.....
   *************   8465   bw-opening-254,                         !- Name
   *************   8466   Window,                                 !- Surface Type
   *************   8467   ,                                       !- Construction Name
   ** Severe  ** IP: IDF line~8467 Error detected in Object=FENESTRATIONSURFACE:DETAILED, name=BW-OPENING-254
   **   ~~~   ** Field [Construction Name] is required but was blank
   ************* IDF Context for following error/warning message:
   ************* Note -- lines truncated at 300 characters, if necessary...
   *************   8480 BuildingSurface:Detailed,
   ************* indicated Name=floor-5-space-11
   ************* Only last 3 lines before error line shown.....
   *************   8481   floor-5-space-11,                       !- Name
   *************   8482   Floor,                                  !- Surface Type
   *************   8483   ,                                       !- Construction Name
   ** Severe  ** IP: IDF line~8483 Error detected in Object=BUILDINGSURFACE:DETAILED, name=FLOOR-5-SPACE-11
   **   ~~~   ** Field [Construction Name] is required but was blank
   ************* IDF Context for following error/warning message:
   ************* Note -- lines truncated at 300 characters, if necessary...
   *************   8496 BuildingSurface:Detailed,
   ************* indicated Name=interior-wall-floor-5-space-11
   ************* Only last 3 lines before error line shown.....
   *************   8497   interior-wall-floor-5-space-11,         !- Name
   *************   8498   Wall,                                   !- Surface Type
   *************   8499   ,                                       !- Construction Name
   ** Severe  ** IP: IDF line~8499 Error detected in Object=BUILDINGSURFACE:DETAILED, name=INTERIOR-WALL-FLOOR-5-SPACE-11
   **   ~~~   ** Field [Construction Name] is required but was blank
   ************* IDF Context for following error/warning message:
   ************* Note -- lines truncated at 300 characters, if necessary...
   *************   8512 BuildingSurface:Detailed,
   ************* indicated Name=roof-floor-5-space-11
   ************* Only last 3 lines before error line shown.....
   *************   8513   roof-floor-5-space-11,                  !- Name
   *************   8514   Roof,                                   !- Surface Type
   *************   8515   ,                                       !- Construction Name
   ** Severe  ** IP: IDF line~8515 Error detected in Object=BUILDINGSURFACE:DETAILED, name=ROOF-FLOOR-5-SPACE-11
   **   ~~~   ** Field [Construction Name] is required but was blank
   ************* IDF Context for following error/warning message:
   ************* Note -- lines truncated at 300 characters, if necessary...
   *************   8542 BuildingSurface:Detailed,
   ************* indicated Name=diagonal-interior-wall-floor-5-space-12
   ************* Only last 3 lines before error line shown.....
   *************   8543   diagonal-interior-wall-floor-5-space-12, !- Name
   *************   8544   Wall,                                   !- Surface Type
   *************   8545   ,                                       !- Construction Name
   ** Severe  ** IP: IDF line~8545 Error detected in Object=BUILDINGSURFACE:DETAILED, name=DIAGONAL-INTERIOR-WALL-FLOOR-5-SPACE-12
   **   ~~~   ** Field [Construction Name] is required but was blank
   ************* IDF Context for following error/warning message:
   ************* Note -- lines truncated at 300 characters, if necessary...
   *************   8558 BuildingSurface:Detailed,
   ************* indicated Name=exterior-wall-floor-5-space-12
   ************* Only last 3 lines before error line shown.....
   *************   8559   exterior-wall-floor-5-space-12,         !- Name
   *************   8560   Wall,                                   !- Surface Type
   *************   8561   ,                                       !- Construction Name
   ** Severe  ** IP: IDF line~8561 Error detected in Object=BUILDINGSURFACE:DETAILED, name=EXTERIOR-WALL-FLOOR-5-SPACE-12
   **   ~~~   ** Field [Construction Name] is required but was blank
   ************* IDF Context for following error/warning message:
   ************* Note -- lines truncated at 300 characters, if necessary...
   *************   8574 FenestrationSurface:Detailed,
   ************* indicated Name=bw-opening-259
   ************* Only last 3 lines before error line shown.....
   *************   8575   bw-opening-259,                         !- Name
   *************   8576   Window,                                 !- Surface Type
   *************   8577   ,                                       !- Construction Name
   ** Severe  ** IP: IDF line~8577 Error detected in Object=FENESTRATIONSURFACE:DETAILED, name=BW-OPENING-259
   **   ~~~   ** Field [Construction Name] is required but was blank
   ************* IDF Context for following error/warning message:
   ************* Note -- lines truncated at 300 characters, if necessary...
   *************   8590 BuildingSurface:Detailed,
   ************* indicated Name=floor-5-space-12
   ************* Only last 3 lines before error line shown.....
   *************   8591   floor-5-space-12,                       !- Name
   *************   8592   Floor,                                  !- Surface Type
   *************   8593   ,                                       !- Construction Name
   ** Severe  ** IP: IDF line~8593 Error detected in Object=BUILDINGSURFACE:DETAILED, name=FLOOR-5-SPACE-12
   **   ~~~   ** Field [Construction Name] is required but was blank
   ************* IDF Context for following error/warning message:
   ************* Note -- lines truncated at 300 characters, if necessary...
   *************   8606 BuildingSurface:Detailed,
   ************* indicated Name=interior-wall-floor-5-space-12
   ************* Only last 3 lines before error line shown.....
   *************   8607   interior-wall-floor-5-space-12,         !- Name
   *************   8608   Wall,                                   !- Surface Type
   *************   8609   ,                                       !- Construction Name
   ** Severe  ** IP: IDF line~8609 Error detected in Object=BUILDINGSURFACE:DETAILED, name=INTERIOR-WALL-FLOOR-5-SPACE-12
   **   ~~~   ** Field [Construction Name] is required but was blank
   ************* IDF Context for following error/warning message:
   ************* Note -- lines truncated at 300 characters, if necessary...
   *************   8622 BuildingSurface:Detailed,
   ************* indicated Name=roof-floor-5-space-12
   ************* Only last 3 lines before error line shown.....
   *************   8623   roof-floor-5-space-12,                  !- Name
   *************   8624   Roof,                                   !- Surface Type
   *************   8625   ,                                       !- Construction Name
   ** Severe  ** IP: IDF line~8625 Error detected in Object=BUILDINGSURFACE:DETAILED, name=ROOF-FLOOR-5-SPACE-12
   **   ~~~   ** Field [Construction Name] is required but was blank
   ************* IDF Context for following error/warning message:
   ************* Note -- lines truncated at 300 characters, if necessary...
   *************   8652 BuildingSurface:Detailed,
   ************* indicated Name=slab-floor-4
   ************* Only last 3 lines before error line shown.....
   *************   8653   slab-floor-4,                           !- Name
   *************   8654   Floor,                                  !- Surface Type
   *************   8655   ,                                       !- Construction Name
   ** Severe  ** IP: IDF line~8655 Error detected in Object=BUILDINGSURFACE:DETAILED, name=SLAB-FLOOR-4
   **   ~~~   ** Field [Construction Name] is required but was blank
   ************* IDF Context for following error/warning message:
   ************* Note -- lines truncated at 300 characters, if necessary...
   *************   8676 BuildingSurface:Detailed,
   ************* indicated Name={badb2b9f-83e1-4532-a43a-d061ef3e5e0a}
   ************* Only last 3 lines before error line shown.....
   *************   8677   {badb2b9f-83e1-4532-a43a-d061ef3e5e0a}, !- Name
   *************   8678   Roof,                                   !- Surface Type
   *************   8679   ,                                       !- Construction Name
   ** Severe  ** IP: IDF line~8679 Error detected in Object=BUILDINGSURFACE:DETAILED, name={BADB2B9F-83E1-4532-A43A-D061EF3E5E0A}
   **   ~~~   ** Field [Construction Name] is required but was blank
   ** Severe  ** IP: Blank "required" fields found in input
   ** Severe  ** IP: Out of "range" values and/or blank required fields found in input
   **  Fatal  ** IP: Errors occurred on processing IDF file. Preceding condition(s) cause termination.
   ...Summary of Errors that led to program termination:
   ..... Reference severe error count=439
   ..... Last severe error=IP: Out of "range" values and/or blank required fields found in input
   ************* Warning:  Node connection errors not checked - most system input has not been read (see previous warning).
   ************* Fatal error -- final processing.  Program exited before simulations began.  See previous error messages.
   ************* EnergyPlus Warmup Error Summary. During Warmup: 0 Warning; 0 Severe Errors.
   ************* EnergyPlus Sizing Error Summary. During Sizing: 0 Warning; 0 Severe Errors.
   ************* EnergyPlus Terminated--Fatal Error Detected. 0 Warning; 439 Severe Errors; Elapsed Time=00hr 00min  0.58sec
