{
   "completed_at" : "20171029T074452Z",
   "completed_status" : "Fail",
   "created_at" : "20171029T074409Z",
   "current_step" : 0,
   "eplusout_err" : "Program Version,EnergyPlus, Version 8.8.0-7c3bbe4830, YMD=2017.10.29 00:44,IDD_Version 8.8.0\n   ************* IDF Context for following error/warning message:\n   ************* Note -- lines truncated at 300 characters, if necessary...\n   *************   1502 BuildingSurface:Detailed,\n   ************* indicated Name=diagonal-interior-wall-floor-1-space-1\n   ************* Only last 3 lines before error line shown.....\n   *************   1503   diagonal-interior-wall-floor-1-space-1, !- Name\n   *************   1504   Wall,                                   !- Surface Type\n   *************   1505   ,                                       !- Construction Name\n   ** Severe  ** IP: IDF line~1505 Error detected in Object=BUILDINGSURFACE:DETAILED, name=DIAGONAL-INTERIOR-WALL-FLOOR-1-SPACE-1\n   **   ~~~   ** Field [Construction Name] is required but was blank\n   ************* IDF Context for following error/warning message:\n   ************* Note -- lines truncated at 300 characters, if necessary...\n   *************   1518 BuildingSurface:Detailed,\n   ************* indicated Name=diagonal-interior-wall-floor-1-space-6 Reversed\n   ************* Only last 3 lines before error line shown.....\n   *************   1519   diagonal-interior-wall-floor-1-space-6 Reversed, !- Name\n   *************   1520   Wall,                                   !- Surface Type\n   *************   1521   ,                                       !- Construction Name\n   ** Severe  ** IP: IDF line~1521 Error detected in Object=BUILDINGSURFACE:DETAILED, name=DIAGONAL-INTERIOR-WALL-FLOOR-1-SPACE-6 REVERSED\n   **   ~~~   ** Field [Construction Name] is required but was blank\n   ************* IDF Context for following error/warning message:\n   ************* Note -- lines truncated at 300 characters, if necessary...\n   *************   1534 BuildingSurface:Detailed,\n   ************* indicated Name=diagonal-interior-wall-floor-10-space-1 Reversed\n   ************* Only last 3 lines before error line shown.....\n   *************   1535   diagonal-interior-wall-floor-10-space-1 Reversed, !- Name\n   *************   1536   Wall,                                   !- Surface Type\n   *************   1537   ,                                       !- Construction Name\n   ** Severe  ** IP: IDF line~1537 Error detected in Object=BUILDINGSURFACE:DETAILED, name=DIAGONAL-INTERIOR-WALL-FLOOR-10-SPACE-1 REVERSED\n   **   ~~~   ** Field [Construction Name] is required but was blank\n   ************* IDF Context for following error/warning message:\n   ************* Note -- lines truncated at 300 characters, if necessary...\n   *************   1550 BuildingSurface:Detailed,\n   ************* indicated Name=diagonal-interior-wall-floor-10-space-2 Reversed\n   ************* Only last 3 lines before error line shown.....\n   *************   1551   diagonal-interior-wall-floor-10-space-2 Reversed, !- Name\n   *************   1552   Wall,                                   !- Surface Type\n   *************   1553   ,                                       !- Construction Name\n   ** Severe  ** IP: IDF line~1553 Error detected in Object=BUILDINGSURFACE:DETAILED, name=DIAGONAL-INTERIOR-WALL-FLOOR-10-SPACE-2 REVERSED\n   **   ~~~   ** Field [Construction Name] is required but was blank\n   ************* IDF Context for following error/warning message:\n   ************* Note -- lines truncated at 300 characters, if necessary...\n   *************   1566 BuildingSurface:Detailed,\n   ************* indicated Name=diagonal-interior-wall-floor-10-space-3 Reversed\n   ************* Only last 3 lines before error line shown.....\n   *************   1567   diagonal-interior-wall-floor-10-space-3 Reversed, !- Name\n   *************   1568   Wall,                                   !- Surface Type\n   *************   1569   ,                                       !- Construction Name\n   ** Severe  ** IP: IDF line~1569 Error detected in Object=BUILDINGSURFACE:DETAILED, name=DIAGONAL-INTERIOR-WALL-FLOOR-10-SPACE-3 REVERSED\n   **   ~~~   ** Field [Construction Name] is required but was blank\n   ************* IDF Context for following error/warning message:\n   ************* Note -- lines truncated at 300 characters, if necessary...\n   *************   1582 BuildingSurface:Detailed,\n   ************* indicated Name=diagonal-interior-wall-floor-10-space-4 Reversed\n   ************* Only last 3 lines before error line shown.....\n   *************   1583   diagonal-interior-wall-floor-10-space-4 Reversed, !- Name\n   *************   1584   Wall,                                   !- Surface Type\n   *************   1585   ,                                       !- Construction Name\n   ** Severe  ** IP: IDF line~1585 Error detected in Object=BUILDINGSURFACE:DETAILED, name=DIAGONAL-INTERIOR-WALL-FLOOR-10-SPACE-4 REVERSED\n   **   ~~~   ** Field [Construction Name] is required but was blank\n   ************* IDF Context for following error/warning message:\n   ************* Note -- lines truncated at 300 characters, if necessary...\n   *************   1598 BuildingSurface:Detailed,\n   ************* indicated Name=diagonal-interior-wall-floor-10-space-5 Reversed\n   ************* Only last 3 lines before error line shown.....\n   *************   1599   diagonal-interior-wall-floor-10-space-5 Reversed, !- Name\n   *************   1600   Wall,                                   !- Surface Type\n   *************   1601   ,                                       !- Construction Name\n   ** Severe  ** IP: IDF line~1601 Error detected in Object=BUILDINGSURFACE:DETAILED, name=DIAGONAL-INTERIOR-WALL-FLOOR-10-SPACE-5 REVERSED\n   **   ~~~   ** Field [Construction Name] is required but was blank\n   ************* IDF Context for following error/warning message:\n   ************* Note -- lines truncated at 300 characters, if necessary...\n   *************   1614 BuildingSurface:Detailed,\n   ************* indicated Name=diagonal-interior-wall-floor-10-space-6 Reversed\n   ************* Only last 3 lines before error line shown.....\n   *************   1615   diagonal-interior-wall-floor-10-space-6 Reversed, !- Name\n   *************   1616   Wall,                                   !- Surface Type\n   *************   1617   ,                                       !- Construction Name\n   ** Severe  ** IP: IDF line~1617 Error detected in Object=BUILDINGSURFACE:DETAILED, name=DIAGONAL-INTERIOR-WALL-FLOOR-10-SPACE-6 REVERSED\n   **   ~~~   ** Field [Construction Name] is required but was blank\n   ************* IDF Context for following error/warning message:\n   ************* Note -- lines truncated at 300 characters, if necessary...\n   *************   1630 BuildingSurface:Detailed,\n   ************* indicated Name=diagonal-interior-wall-floor-11-space-1 Reversed\n   ************* Only last 3 lines before error line shown.....\n   *************   1631   diagonal-interior-wall-floor-11-space-1 Reversed, !- Name\n   *************   1632   Wall,                                   !- Surface Type\n   *************   1633   ,                                       !- Construction Name\n   ** Severe  ** IP: IDF line~1633 Error detected in Object=BUILDINGSURFACE:DETAILED, name=DIAGONAL-INTERIOR-WALL-FLOOR-11-SPACE-1 REVERSED\n   **   ~~~   ** Field [Construction Name] is required but was blank\n   ************* IDF Context for following error/warning message:\n   ************* Note -- lines truncated at 300 characters, if necessary...\n   *************   1646 BuildingSurface:Detailed,\n   ************* indicated Name=diagonal-interior-wall-floor-11-space-2 Reversed\n   ************* Only last 3 lines before error line shown.....\n   *************   1647   diagonal-interior-wall-floor-11-space-2 Reversed, !- Name\n   *************   1648   Wall,                                   !- Surface Type\n   *************   1649   ,                                       !- Construction Name\n   ** Severe  ** IP: IDF line~1649 Error detected in Object=BUILDINGSURFACE:DETAILED, name=DIAGONAL-INTERIOR-WALL-FLOOR-11-SPACE-2 REVERSED\n   **   ~~~   ** Field [Construction Name] is required but was blank\n   ************* IDF Context for following error/warning message:\n   ************* Note -- lines truncated at 300 characters, if necessary...\n   *************   1662 BuildingSurface:Detailed,\n   ************* indicated Name=diagonal-interior-wall-floor-11-space-3 Reversed\n   ************* Only last 3 lines before error line shown.....\n   *************   1663   diagonal-interior-wall-floor-11-space-3 Reversed, !- Name\n   *************   1664   Wall,                                   !- Surface Type\n   *************   1665   ,                                       !- Construction Name\n   ** Severe  ** IP: IDF line~1665 Error detected in Object=BUILDINGSURFACE:DETAILED, name=DIAGONAL-INTERIOR-WALL-FLOOR-11-SPACE-3 REVERSED\n   **   ~~~   ** Field [Construction Name] is required but was blank\n   ************* IDF Context for following error/warning message:\n   ************* Note -- lines truncated at 300 characters, if necessary...\n   *************   1678 BuildingSurface:Detailed,\n   ************* indicated Name=diagonal-interior-wall-floor-11-space-4 Reversed\n   ************* Only last 3 lines before error line shown.....\n   *************   1679   diagonal-interior-wall-floor-11-space-4 Reversed, !- Name\n   *************   1680   Wall,                                   !- Surface Type\n   *************   1681   ,                                       !- Construction Name\n   ** Severe  ** IP: IDF line~1681 Error detected in Object=BUILDINGSURFACE:DETAILED, name=DIAGONAL-INTERIOR-WALL-FLOOR-11-SPACE-4 REVERSED\n   **   ~~~   ** Field [Construction Name] is required but was blank\n   ************* IDF Context for following error/warning message:\n   ************* Note -- lines truncated at 300 characters, if necessary...\n   *************   1694 BuildingSurface:Detailed,\n   ************* indicated Name=diagonal-interior-wall-floor-11-space-5 Reversed\n   ************* Only last 3 lines before error line shown.....\n   *************   1695   diagonal-interior-wall-floor-11-space-5 Reversed, !- Name\n   *************   1696   Wall,                                   !- Surface Type\n   *************   1697   ,                                       !- Construction Name\n   ** Severe  ** IP: IDF line~1697 Error detected in Object=BUILDINGSURFACE:DETAILED, name=DIAGONAL-INTERIOR-WALL-FLOOR-11-SPACE-5 REVERSED\n   **   ~~~   ** Field [Construction Name] is required but was blank\n   ************* IDF Context for following error/warning message:\n   ************* Note -- lines truncated at 300 characters, if necessary...\n   *************   1710 BuildingSurface:Detailed,\n   ************* indicated Name=diagonal-interior-wall-floor-11-space-6 Reversed\n   ************* Only last 3 lines before error line shown.....\n   *************   1711   diagonal-interior-wall-floor-11-space-6 Reversed, !- Name\n   *************   1712   Wall,                                   !- Surface Type\n   *************   1713   ,                                       !- Construction Name\n   ** Severe  ** IP: IDF line~1713 Error detected in Object=BUILDINGSURFACE:DETAILED, name=DIAGONAL-INTERIOR-WALL-FLOOR-11-SPACE-6 REVERSED\n   **   ~~~   ** Field [Construction Name] is required but was blank\n   ************* IDF Context for following error/warning message:\n   ************* Note -- lines truncated at 300 characters, if necessary...\n   *************   1726 BuildingSurface:Detailed,\n   ************* indicated Name=diagonal-interior-wall-floor-12-space-1 Reversed\n   ************* Only last 3 lines before error line shown.....\n   *************   1727   diagonal-interior-wall-floor-12-space-1 Reversed, !- Name\n   *************   1728   Wall,                                   !- Surface Type\n   *************   1729   ,                                       !- Construction Name\n   ** Severe  ** IP: IDF line~1729 Error detected in Object=BUILDINGSURFACE:DETAILED, name=DIAGONAL-INTERIOR-WALL-FLOOR-12-SPACE-1 REVERSED\n   **   ~~~   ** Field [Construction Name] is required but was blank\n   ************* IDF Context for following error/warning message:\n   ************* Note -- lines truncated at 300 characters, if necessary...\n   *************   1742 BuildingSurface:Detailed,\n   ************* indicated Name=diagonal-interior-wall-floor-12-space-2 Reversed\n   ************* Only last 3 lines before error line shown.....\n   *************   1743   diagonal-interior-wall-floor-12-space-2 Reversed, !- Name\n   *************   1744   Wall,                                   !- Surface Type\n   *************   1745   ,                                       !- Construction Name\n   ** Severe  ** IP: IDF line~1745 Error detected in Object=BUILDINGSURFACE:DETAILED, name=DIAGONAL-INTERIOR-WALL-FLOOR-12-SPACE-2 REVERSED\n   **   ~~~   ** Field [Construction Name] is required but was blank\n   ************* IDF Context for following error/warning message:\n   ************* Note -- lines truncated at 300 characters, if necessary...\n   *************   1758 BuildingSurface:Detailed,\n   ************* indicated Name=diagonal-interior-wall-floor-12-space-3 Reversed\n   ************* Only last 3 lines before error line shown.....\n   *************   1759   diagonal-interior-wall-floor-12-space-3 Reversed, !- Name\n   *************   1760   Wall,                                   !- Surface Type\n   *************   1761   ,                                       !- Construction Name\n   ** Severe  ** IP: IDF line~1761 Error detected in Object=BUILDINGSURFACE:DETAILED, name=DIAGONAL-INTERIOR-WALL-FLOOR-12-SPACE-3 REVERSED\n   **   ~~~   ** Field [Construction Name] is required but was blank\n   ************* IDF Context for following error/warning message:\n   ************* Note -- lines truncated at 300 characters, if necessary...\n   *************   1774 BuildingSurface:Detailed,\n   ************* indicated Name=diagonal-interior-wall-floor-12-space-4 Reversed\n   ************* Only last 3 lines before error line shown.....\n   *************   1775   diagonal-interior-wall-floor-12-space-4 Reversed, !- Name\n   *************   1776   Wall,                                   !- Surface Type\n   *************   1777   ,                                       !- Construction Name\n   ** Severe  ** IP: IDF line~1777 Error detected in Object=BUILDINGSURFACE:DETAILED, name=DIAGONAL-INTERIOR-WALL-FLOOR-12-SPACE-4 REVERSED\n   **   ~~~   ** Field [Construction Name] is required but was blank\n   ************* IDF Context for following error/warning message:\n   ************* Note -- lines truncated at 300 characters, if necessary...\n   *************   1790 BuildingSurface:Detailed,\n   ************* indicated Name=diagonal-interior-wall-floor-12-space-5 Reversed\n   ************* Only last 3 lines before error line shown.....\n   *************   1791   diagonal-interior-wall-floor-12-space-5 Reversed, !- Name\n   *************   1792   Wall,                                   !- Surface Type\n   *************   1793   ,                                       !- Construction Name\n   ** Severe  ** IP: IDF line~1793 Error detected in Object=BUILDINGSURFACE:DETAILED, name=DIAGONAL-INTERIOR-WALL-FLOOR-12-SPACE-5 REVERSED\n   **   ~~~   ** Field [Construction Name] is required but was blank\n   ************* IDF Context for following error/warning message:\n   ************* Note -- lines truncated at 300 characters, if necessary...\n   *************   1806 BuildingSurface:Detailed,\n   ************* indicated Name=diagonal-interior-wall-floor-12-space-6 Reversed\n   ************* Only last 3 lines before error line shown.....\n   *************   1807   diagonal-interior-wall-floor-12-space-6 Reversed, !- Name\n   *************   1808   Wall,                                   !- Surface Type\n   *************   1809   ,                                       !- Construction Name\n   ** Severe  ** IP: IDF line~1809 Error detected in Object=BUILDINGSURFACE:DETAILED, name=DIAGONAL-INTERIOR-WALL-FLOOR-12-SPACE-6 REVERSED\n   **   ~~~   ** Field [Construction Name] is required but was blank\n   ************* IDF Context for following error/warning message:\n   ************* Note -- lines truncated at 300 characters, if necessary...\n   *************   1822 BuildingSurface:Detailed,\n   ************* indicated Name=diagonal-interior-wall-floor-13-space-1 Reversed\n   ************* Only last 3 lines before error line shown.....\n   *************   1823   diagonal-interior-wall-floor-13-space-1 Reversed, !- Name\n   *************   1824   Wall,                                   !- Surface Type\n   *************   1825   ,                                       !- Construction Name\n   ** Severe  ** IP: IDF line~1825 Error detected in Object=BUILDINGSURFACE:DETAILED, name=DIAGONAL-INTERIOR-WALL-FLOOR-13-SPACE-1 REVERSED\n   **   ~~~   ** Field [Construction Name] is required but was blank\n   ************* IDF Context for following error/warning message:\n   ************* Note -- lines truncated at 300 characters, if necessary...\n   *************   1838 BuildingSurface:Detailed,\n   ************* indicated Name=diagonal-interior-wall-floor-13-space-2 Reversed\n   ************* Only last 3 lines before error line shown.....\n   *************   1839   diagonal-interior-wall-floor-13-space-2 Reversed, !- Name\n   *************   1840   Wall,                                   !- Surface Type\n   *************   1841   ,                                       !- Construction Name\n   ** Severe  ** IP: IDF line~1841 Error detected in Object=BUILDINGSURFACE:DETAILED, name=DIAGONAL-INTERIOR-WALL-FLOOR-13-SPACE-2 REVERSED\n   **   ~~~   ** Field [Construction Name] is required but was blank\n   ************* IDF Context for following error/warning message:\n   ************* Note -- lines truncated at 300 characters, if necessary...\n   *************   1854 BuildingSurface:Detailed,\n   ************* indicated Name=diagonal-interior-wall-floor-13-space-3 Reversed\n   ************* Only last 3 lines before error line shown.....\n   *************   1855   diagonal-interior-wall-floor-13-space-3 Reversed, !- Name\n   *************   1856   Wall,                                   !- Surface Type\n   *************   1857   ,                                       !- Construction Name\n   ** Severe  ** IP: IDF line~1857 Error detected in Object=BUILDINGSURFACE:DETAILED, name=DIAGONAL-INTERIOR-WALL-FLOOR-13-SPACE-3 REVERSED\n   **   ~~~   ** Field [Construction Name] is required but was blank\n   ************* IDF Context for following error/warning message:\n   ************* Note -- lines truncated at 300 characters, if necessary...\n   *************   1870 BuildingSurface:Detailed,\n   ************* indicated Name=diagonal-interior-wall-floor-13-space-4 Reversed\n   ************* Only last 3 lines before error line shown.....\n   *************   1871   diagonal-interior-wall-floor-13-space-4 Reversed, !- Name\n   *************   1872   Wall,                                   !- Surface Type\n   *************   1873   ,                                       !- Construction Name\n   ** Severe  ** IP: IDF line~1873 Error detected in Object=BUILDINGSURFACE:DETAILED, name=DIAGONAL-INTERIOR-WALL-FLOOR-13-SPACE-4 REVERSED\n   **   ~~~   ** Field [Construction Name] is required but was blank\n   ************* IDF Context for following error/warning message:\n   ************* Note -- lines truncated at 300 characters, if necessary...\n   *************   1886 BuildingSurface:Detailed,\n   ************* indicated Name=diagonal-interior-wall-floor-13-space-5 Reversed\n   ************* Only last 3 lines before error line shown.....\n   *************   1887   diagonal-interior-wall-floor-13-space-5 Reversed, !- Name\n   *************   1888   Wall,                                   !- Surface Type\n   *************   1889   ,                                       !- Construction Name\n   ** Severe  ** IP: IDF line~1889 Error detected in Object=BUILDINGSURFACE:DETAILED, name=DIAGONAL-INTERIOR-WALL-FLOOR-13-SPACE-5 REVERSED\n   **   ~~~   ** Field [Construction Name] is required but was blank\n   ************* IDF Context for following error/warning message:\n   ************* Note -- lines truncated at 300 characters, if necessary...\n   *************   1902 BuildingSurface:Detailed,\n   ************* indicated Name=diagonal-interior-wall-floor-13-space-6 Reversed\n   ************* Only last 3 lines before error line shown.....\n   *************   1903   diagonal-interior-wall-floor-13-space-6 Reversed, !- Name\n   *************   1904   Wall,                                   !- Surface Type\n   *************   1905   ,                                       !- Construction Name\n   ** Severe  ** IP: IDF line~1905 Error detected in Object=BUILDINGSURFACE:DETAILED, name=DIAGONAL-INTERIOR-WALL-FLOOR-13-SPACE-6 REVERSED\n   **   ~~~   ** Field [Construction Name] is required but was blank\n   ************* IDF Context for following error/warning message:\n   ************* Note -- lines truncated at 300 characters, if necessary...\n   *************   1918 BuildingSurface:Detailed,\n   ************* indicated Name=diagonal-interior-wall-floor-14-space-1 Reversed\n   ************* Only last 3 lines before error line shown.....\n   *************   1919   diagonal-interior-wall-floor-14-space-1 Reversed, !- Name\n   *************   1920   Wall,                                   !- Surface Type\n   *************   1921   ,                                       !- Construction Name\n   ** Severe  ** IP: IDF line~1921 Error detected in Object=BUILDINGSURFACE:DETAILED, name=DIAGONAL-INTERIOR-WALL-FLOOR-14-SPACE-1 REVERSED\n   **   ~~~   ** Field [Construction Name] is required but was blank\n   ************* IDF Context for following error/warning message:\n   ************* Note -- lines truncated at 300 characters, if necessary...\n   *************   1934 BuildingSurface:Detailed,\n   ************* indicated Name=diagonal-interior-wall-floor-14-space-2 Reversed\n   ************* Only last 3 lines before error line shown.....\n   *************   1935   diagonal-interior-wall-floor-14-space-2 Reversed, !- Name\n   *************   1936   Wall,                                   !- Surface Type\n   *************   1937   ,                                       !- Construction Name\n   ** Severe  ** IP: IDF line~1937 Error detected in Object=BUILDINGSURFACE:DETAILED, name=DIAGONAL-INTERIOR-WALL-FLOOR-14-SPACE-2 REVERSED\n   **   ~~~   ** Field [Construction Name] is required but was blank\n   ************* IDF Context for following error/warning message:\n   ************* Note -- lines truncated at 300 characters, if necessary...\n   *************   1950 BuildingSurface:Detailed,\n   ************* indicated Name=diagonal-interior-wall-floor-14-space-3 Reversed\n   ************* Only last 3 lines before error line shown.....\n   *************   1951   diagonal-interior-wall-floor-14-space-3 Reversed, !- Name\n   *************   1952   Wall,                                   !- Surface Type\n   *************   1953   ,                                       !- Construction Name\n   ** Severe  ** IP: IDF line~1953 Error detected in Object=BUILDINGSURFACE:DETAILED, name=DIAGONAL-INTERIOR-WALL-FLOOR-14-SPACE-3 REVERSED\n   **   ~~~   ** Field [Construction Name] is required but was blank\n   ************* IDF Context for following error/warning message:\n   ************* Note -- lines truncated at 300 characters, if necessary...\n   *************   1966 BuildingSurface:Detailed,\n   ************* indicated Name=diagonal-interior-wall-floor-14-space-4 Reversed\n   ************* Only last 3 lines before error line shown.....\n   *************   1967   diagonal-interior-wall-floor-14-space-4 Reversed, !- Name\n   *************   1968   Wall,                                   !- Surface Type\n   *************   1969   ,                                       !- Construction Name\n   ** Severe  ** IP: IDF line~1969 Error detected in Object=BUILDINGSURFACE:DETAILED, name=DIAGONAL-INTERIOR-WALL-FLOOR-14-SPACE-4 REVERSED\n   **   ~~~   ** Field [Construction Name] is required but was blank\n   ************* IDF Context for following error/warning message:\n   ************* Note -- lines truncated at 300 characters, if necessary...\n   *************   1982 BuildingSurface:Detailed,\n   ************* indicated Name=diagonal-interior-wall-floor-14-space-5 Reversed\n   ************* Only last 3 lines before error line shown.....\n   *************   1983   diagonal-interior-wall-floor-14-space-5 Reversed, !- Name\n   *************   1984   Wall,                                   !- Surface Type\n   *************   1985   ,                                       !- Construction Name\n   ** Severe  ** IP: IDF line~1985 Error detected in Object=BUILDINGSURFACE:DETAILED, name=DIAGONAL-INTERIOR-WALL-FLOOR-14-SPACE-5 REVERSED\n   **   ~~~   ** Field [Construction Name] is required but was blank\n   ************* IDF Context for following error/warning message:\n   ************* Note -- lines truncated at 300 characters, if necessary...\n   *************   1998 BuildingSurface:Detailed,\n   ************* indicated Name=diagonal-interior-wall-floor-14-space-6 Reversed\n   ************* Only last 3 lines before error line shown.....\n   *************   1999   diagonal-interior-wall-floor-14-space-6 Reversed, !- Name\n   *************   2000   Wall,                                   !- Surface Type\n   *************   2001   ,                                       !- Construction Name\n   ** Severe  ** IP: IDF line~2001 Error detected in Object=BUILDINGSURFACE:DETAILED, name=DIAGONAL-INTERIOR-WALL-FLOOR-14-SPACE-6 REVERSED\n   **   ~~~   ** Field [Construction Name] is required but was blank\n   ************* IDF Context for following error/warning message:\n   ************* Note -- lines truncated at 300 characters, if necessary...\n   *************   2014 BuildingSurface:Detailed,\n   ************* indicated Name=diagonal-interior-wall-floor-15-space-1 Reversed\n   ************* Only last 3 lines before error line shown.....\n   *************   2015   diagonal-interior-wall-floor-15-space-1 Reversed, !- Name\n   *************   2016   Wall,                                   !- Surface Type\n   *************   2017   ,                                       !- Construction Name\n   ** Severe  ** IP: IDF line~2017 Error detected in Object=BUILDINGSURFACE:DETAILED, name=DIAGONAL-INTERIOR-WALL-FLOOR-15-SPACE-1 REVERSED\n   **   ~~~   ** Field [Construction Name] is required but was blank\n   ************* IDF Context for following error/warning message:\n   ************* Note -- lines truncated at 300 characters, if necessary...\n   *************   2030 BuildingSurface:Detailed,\n   ************* indicated Name=diagonal-interior-wall-floor-15-space-2 Reversed\n   ************* Only last 3 lines before error line shown.....\n   *************   2031   diagonal-interior-wall-floor-15-space-2 Reversed, !- Name\n   *************   2032   Wall,                                   !- Surface Type\n   *************   2033   ,                                       !- Construction Name\n   ** Severe  ** IP: IDF line~2033 Error detected in Object=BUILDINGSURFACE:DETAILED, name=DIAGONAL-INTERIOR-WALL-FLOOR-15-SPACE-2 REVERSED\n   **   ~~~   ** Field [Construction Name] is required but was blank\n   ************* IDF Context for following error/warning message:\n   ************* Note -- lines truncated at 300 characters, if necessary...\n   *************   2046 BuildingSurface:Detailed,\n   ************* indicated Name=diagonal-interior-wall-floor-15-space-3 Reversed\n   ************* Only last 3 lines before error line shown.....\n   *************   2047   diagonal-interior-wall-floor-15-space-3 Reversed, !- Name\n   *************   2048   Wall,                                   !- Surface Type\n   *************   2049   ,                                       !- Construction Name\n   ** Severe  ** IP: IDF line~2049 Error detected in Object=BUILDINGSURFACE:DETAILED, name=DIAGONAL-INTERIOR-WALL-FLOOR-15-SPACE-3 REVERSED\n   **   ~~~   ** Field [Construction Name] is required but was blank\n   ************* IDF Context for following error/warning message:\n   ************* Note -- lines truncated at 300 characters, if necessary...\n   *************   2062 BuildingSurface:Detailed,\n   ************* indicated Name=diagonal-interior-wall-floor-15-space-4 Reversed\n   ************* Only last 3 lines before error line shown.....\n   *************   2063   diagonal-interior-wall-floor-15-space-4 Reversed, !- Name\n   *************   2064   Wall,                                   !- Surface Type\n   *************   2065   ,                                       !- Construction Name\n   ** Severe  ** IP: IDF line~2065 Error detected in Object=BUILDINGSURFACE:DETAILED, name=DIAGONAL-INTERIOR-WALL-FLOOR-15-SPACE-4 REVERSED\n   **   ~~~   ** Field [Construction Name] is required but was blank\n   ************* IDF Context for following error/warning message:\n   ************* Note -- lines truncated at 300 characters, if necessary...\n   *************   2078 BuildingSurface:Detailed,\n   ************* indicated Name=diagonal-interior-wall-floor-15-space-5 Reversed\n   ************* Only last 3 lines before error line shown.....\n   *************   2079   diagonal-interior-wall-floor-15-space-5 Reversed, !- Name\n   *************   2080   Wall,                                   !- Surface Type\n   *************   2081   ,                                       !- Construction Name\n   ** Severe  ** IP: IDF line~2081 Error detected in Object=BUILDINGSURFACE:DETAILED, name=DIAGONAL-INTERIOR-WALL-FLOOR-15-SPACE-5 REVERSED\n   **   ~~~   ** Field [Construction Name] is required but was blank\n   ************* IDF Context for following error/warning message:\n   ************* Note -- lines truncated at 300 characters, if necessary...\n   *************   2094 BuildingSurface:Detailed,\n   ************* indicated Name=diagonal-interior-wall-floor-15-space-6 Reversed\n   ************* Only last 3 lines before error line shown.....\n   *************   2095   diagonal-interior-wall-floor-15-space-6 Reversed, !- Name\n   *************   2096   Wall,                                   !- Surface Type\n   *************   2097   ,                                       !- Construction Name\n   ** Severe  ** IP: IDF line~2097 Error detected in Object=BUILDINGSURFACE:DETAILED, name=DIAGONAL-INTERIOR-WALL-FLOOR-15-SPACE-6 REVERSED\n   **   ~~~   ** Field [Construction Name] is required but was blank\n   ************* IDF Context for following error/warning message:\n   ************* Note -- lines truncated at 300 characters, if necessary...\n   *************   2110 BuildingSurface:Detailed,\n   ************* indicated Name=diagonal-interior-wall-floor-16-space-1 Reversed\n   ************* Only last 3 lines before error line shown.....\n   *************   2111   diagonal-interior-wall-floor-16-space-1 Reversed, !- Name\n   *************   2112   Wall,                                   !- Surface Type\n   *************   2113   ,                                       !- Construction Name\n   ** Severe  ** IP: IDF line~2113 Error detected in Object=BUILDINGSURFACE:DETAILED, name=DIAGONAL-INTERIOR-WALL-FLOOR-16-SPACE-1 REVERSED\n   **   ~~~   ** Field [Construction Name] is required but was blank\n   ************* IDF Context for following error/warning message:\n   ************* Note -- lines truncated at 300 characters, if necessary...\n   *************   2126 BuildingSurface:Detailed,\n   ************* indicated Name=diagonal-interior-wall-floor-16-space-2 Reversed\n   ************* Only last 3 lines before error line shown.....\n   *************   2127   diagonal-interior-wall-floor-16-space-2 Reversed, !- Name\n   *************   2128   Wall,                                   !- Surface Type\n   *************   2129   ,                                       !- Construction Name\n   ** Severe  ** IP: IDF line~2129 Error detected in Object=BUILDINGSURFACE:DETAILED, name=DIAGONAL-INTERIOR-WALL-FLOOR-16-SPACE-2 REVERSED\n   **   ~~~   ** Field [Construction Name] is required but was blank\n   ************* IDF Context for following error/warning message:\n   ************* Note -- lines truncated at 300 characters, if necessary...\n   *************   2142 BuildingSurface:Detailed,\n   ************* indicated Name=diagonal-interior-wall-floor-16-space-3 Reversed\n   ************* Only last 3 lines before error line shown.....\n   *************   2143   diagonal-interior-wall-floor-16-space-3 Reversed, !- Name\n   *************   2144   Wall,                                   !- Surface Type\n   *************   2145   ,                                       !- Construction Name\n   ** Severe  ** IP: IDF line~2145 Error detected in Object=BUILDINGSURFACE:DETAILED, name=DIAGONAL-INTERIOR-WALL-FLOOR-16-SPACE-3 REVERSED\n   **   ~~~   ** Field [Construction Name] is required but was blank\n   ************* IDF Context for following error/warning message:\n   ************* Note -- lines truncated at 300 characters, if necessary...\n   *************   2158 BuildingSurface:Detailed,\n   ************* indicated Name=diagonal-interior-wall-floor-16-space-4 Reversed\n   ************* Only last 3 lines before error line shown.....\n   *************   2159   diagonal-interior-wall-floor-16-space-4 Reversed, !- Name\n   *************   2160   Wall,                                   !- Surface Type\n   *************   2161   ,                                       !- Construction Name\n   ** Severe  ** IP: IDF line~2161 Error detected in Object=BUILDINGSURFACE:DETAILED, name=DIAGONAL-INTERIOR-WALL-FLOOR-16-SPACE-4 REVERSED\n   **   ~~~   ** Field [Construction Name] is required but was blank\n   ************* IDF Context for following error/warning message:\n   ************* Note -- lines truncated at 300 characters, if necessary...\n   *************   2174 BuildingSurface:Detailed,\n   ************* indicated Name=diagonal-interior-wall-floor-16-space-5 Reversed\n   ************* Only last 3 lines before error line shown.....\n   *************   2175   diagonal-interior-wall-floor-16-space-5 Reversed, !- Name\n   *************   2176   Wall,                                   !- Surface Type\n   *************   2177   ,                                       !- Construction Name\n   ** Severe  ** IP: IDF line~2177 Error detected in Object=BUILDINGSURFACE:DETAILED, name=DIAGONAL-INTERIOR-WALL-FLOOR-16-SPACE-5 REVERSED\n   **   ~~~   ** Field [Construction Name] is required but was blank\n   ************* IDF Context for following error/warning message:\n   ************* Note -- lines truncated at 300 characters, if necessary...\n   *************   2190 BuildingSurface:Detailed,\n   ************* indicated Name=diagonal-interior-wall-floor-16-space-6 Reversed\n   ************* Only last 3 lines before error line shown.....\n   *************   2191   diagonal-interior-wall-floor-16-space-6 Reversed, !- Name\n   *************   2192   Wall,                                   !- Surface Type\n   *************   2193   ,                                       !- Construction Name\n   ** Severe  ** IP: IDF line~2193 Error detected in Object=BUILDINGSURFACE:DETAILED, name=DIAGONAL-INTERIOR-WALL-FLOOR-16-SPACE-6 REVERSED\n   **   ~~~   ** Field [Construction Name] is required but was blank\n   ************* IDF Context for following error/warning message:\n   ************* Note -- lines truncated at 300 characters, if necessary...\n   *************   2206 BuildingSurface:Detailed,\n   ************* indicated Name=diagonal-interior-wall-floor-17-space-1 Reversed\n   ************* Only last 3 lines before error line shown.....\n   *************   2207   diagonal-interior-wall-floor-17-space-1 Reversed, !- Name\n   *************   2208   Wall,                                   !- Surface Type\n   *************   2209   ,                                       !- Construction Name\n   ** Severe  ** IP: IDF line~2209 Error detected in Object=BUILDINGSURFACE:DETAILED, name=DIAGONAL-INTERIOR-WALL-FLOOR-17-SPACE-1 REVERSED\n   **   ~~~   ** Field [Construction Name] is required but was blank\n   ************* IDF Context for following error/warning message:\n   ************* Note -- lines truncated at 300 characters, if necessary...\n   *************   2222 BuildingSurface:Detailed,\n   ************* indicated Name=diagonal-interior-wall-floor-17-space-2 Reversed\n   ************* Only last 3 lines before error line shown.....\n   *************   2223   diagonal-interior-wall-floor-17-space-2 Reversed, !- Name\n   *************   2224   Wall,                                   !- Surface Type\n   *************   2225   ,                                       !- Construction Name\n   ** Severe  ** IP: IDF line~2225 Error detected in Object=BUILDINGSURFACE:DETAILED, name=DIAGONAL-INTERIOR-WALL-FLOOR-17-SPACE-2 REVERSED\n   **   ~~~   ** Field [Construction Name] is required but was blank\n   ************* IDF Context for following error/warning message:\n   ************* Note -- lines truncated at 300 characters, if necessary...\n   *************   2238 BuildingSurface:Detailed,\n   ************* indicated Name=diagonal-interior-wall-floor-17-space-3 Reversed\n   ************* Only last 3 lines before error line shown.....\n   *************   2239   diagonal-interior-wall-floor-17-space-3 Reversed, !- Name\n   *************   2240   Wall,                                   !- Surface Type\n   *************   2241   ,                                       !- Construction Name\n   ** Severe  ** IP: IDF line~2241 Error detected in Object=BUILDINGSURFACE:DETAILED, name=DIAGONAL-INTERIOR-WALL-FLOOR-17-SPACE-3 REVERSED\n   **   ~~~   ** Field [Construction Name] is required but was blank\n   ************* IDF Context for following error/warning message:\n   ************* Note -- lines truncated at 300 characters, if necessary...\n   *************   2254 BuildingSurface:Detailed,\n   ************* indicated Name=diagonal-interior-wall-floor-17-space-4 Reversed\n   ************* Only last 3 lines before error line shown.....\n   *************   2255   diagonal-interior-wall-floor-17-space-4 Reversed, !- Name\n   *************   2256   Wall,                                   !- Surface Type\n   *************   2257   ,                                       !- Construction Name\n   ** Severe  ** IP: IDF line~2257 Error detected in Object=BUILDINGSURFACE:DETAILED, name=DIAGONAL-INTERIOR-WALL-FLOOR-17-SPACE-4 REVERSED\n   **   ~~~   ** Field [Construction Name] is required but was blank\n   ************* IDF Context for following error/warning message:\n   ************* Note -- lines truncated at 300 characters, if necessary...\n   *************   2270 BuildingSurface:Detailed,\n   ************* indicated Name=diagonal-interior-wall-floor-17-space-5 Reversed\n   ************* Only last 3 lines before error line shown.....\n   *************   2271   diagonal-interior-wall-floor-17-space-5 Reversed, !- Name\n   *************   2272   Wall,                                   !- Surface Type\n   *************   2273   ,                                       !- Construction Name\n   ** Severe  ** IP: IDF line~2273 Error detected in Object=BUILDINGSURFACE:DETAILED, name=DIAGONAL-INTERIOR-WALL-FLOOR-17-SPACE-5 REVERSED\n   **   ~~~   ** Field [Construction Name] is required but was blank\n   ************* IDF Context for following error/warning message:\n   ************* Note -- lines truncated at 300 characters, if necessary...\n   *************   2286 BuildingSurface:Detailed,\n   ************* indicated Name=diagonal-interior-wall-floor-17-space-6 Reversed\n   ************* Only last 3 lines before error line shown.....\n   *************   2287   diagonal-interior-wall-floor-17-space-6 Reversed, !- Name\n   *************   2288   Wall,                                   !- Surface Type\n   *************   2289   ,                                       !- Construction Name\n   ** Severe  ** IP: IDF line~2289 Error detected in Object=BUILDINGSURFACE:DETAILED, name=DIAGONAL-INTERIOR-WALL-FLOOR-17-SPACE-6 REVERSED\n   **   ~~~   ** Field [Construction Name] is required but was blank\n   ************* IDF Context for following error/warning message:\n   ************* Note -- lines truncated at 300 characters, if necessary...\n   *************   2302 BuildingSurface:Detailed,\n   ************* indicated Name=diagonal-interior-wall-floor-2-space-1 Reversed\n   ************* Only last 3 lines before error line shown.....\n   *************   2303   diagonal-interior-wall-floor-2-space-1 Reversed, !- Name\n   *************   2304   Wall,                                   !- Surface Type\n   *************   2305   ,                                       !- Construction Name\n   ** Severe  ** IP: IDF line~2305 Error detected in Object=BUILDINGSURFACE:DETAILED, name=DIAGONAL-INTERIOR-WALL-FLOOR-2-SPACE-1 REVERSED\n   **   ~~~   ** Field [Construction Name] is required but was blank\n   ************* IDF Context for following error/warning message:\n   ************* Note -- lines truncated at 300 characters, if necessary...\n   *************   2318 BuildingSurface:Detailed,\n   ************* indicated Name=diagonal-interior-wall-floor-2-space-2 Reversed\n   ************* Only last 3 lines before error line shown.....\n   *************   2319   diagonal-interior-wall-floor-2-space-2 Reversed, !- Name\n   *************   2320   Wall,                                   !- Surface Type\n   *************   2321   ,                                       !- Construction Name\n   ** Severe  ** IP: IDF line~2321 Error detected in Object=BUILDINGSURFACE:DETAILED, name=DIAGONAL-INTERIOR-WALL-FLOOR-2-SPACE-2 REVERSED\n   **   ~~~   ** Field [Construction Name] is required but was blank\n   ************* IDF Context for following error/warning message:\n   ************* Note -- lines truncated at 300 characters, if necessary...\n   *************   2334 BuildingSurface:Detailed,\n   ************* indicated Name=diagonal-interior-wall-floor-2-space-3 Reversed\n   ************* Only last 3 lines before error line shown.....\n   *************   2335   diagonal-interior-wall-floor-2-space-3 Reversed, !- Name\n   *************   2336   Wall,                                   !- Surface Type\n   *************   2337   ,                                       !- Construction Name\n   ** Severe  ** IP: IDF line~2337 Error detected in Object=BUILDINGSURFACE:DETAILED, name=DIAGONAL-INTERIOR-WALL-FLOOR-2-SPACE-3 REVERSED\n   **   ~~~   ** Field [Construction Name] is required but was blank\n   ************* IDF Context for following error/warning message:\n   ************* Note -- lines truncated at 300 characters, if necessary...\n   *************   2350 BuildingSurface:Detailed,\n   ************* indicated Name=diagonal-interior-wall-floor-2-space-4 Reversed\n   ************* Only last 3 lines before error line shown.....\n   *************   2351   diagonal-interior-wall-floor-2-space-4 Reversed, !- Name\n   *************   2352   Wall,                                   !- Surface Type\n   *************   2353   ,                                       !- Construction Name\n   ** Severe  ** IP: IDF line~2353 Error detected in Object=BUILDINGSURFACE:DETAILED, name=DIAGONAL-INTERIOR-WALL-FLOOR-2-SPACE-4 REVERSED\n   **   ~~~   ** Field [Construction Name] is required but was blank\n   ************* IDF Context for following error/warning message:\n   ************* Note -- lines truncated at 300 characters, if necessary...\n   *************   2366 BuildingSurface:Detailed,\n   ************* indicated Name=diagonal-interior-wall-floor-2-space-5 Reversed\n   ************* Only last 3 lines before error line shown.....\n   *************   2367   diagonal-interior-wall-floor-2-space-5 Reversed, !- Name\n   *************   2368   Wall,                                   !- Surface Type\n   *************   2369   ,                                       !- Construction Name\n   ** Severe  ** IP: IDF line~2369 Error detected in Object=BUILDINGSURFACE:DETAILED, name=DIAGONAL-INTERIOR-WALL-FLOOR-2-SPACE-5 REVERSED\n   **   ~~~   ** Field [Construction Name] is required but was blank\n   ************* IDF Context for following error/warning message:\n   ************* Note -- lines truncated at 300 characters, if necessary...\n   *************   2382 BuildingSurface:Detailed,\n   ************* indicated Name=diagonal-interior-wall-floor-2-space-6 Reversed\n   ************* Only last 3 lines before error line shown.....\n   *************   2383   diagonal-interior-wall-floor-2-space-6 Reversed, !- Name\n   *************   2384   Wall,                                   !- Surface Type\n   *************   2385   ,                                       !- Construction Name\n   ** Severe  ** IP: IDF line~2385 Error detected in Object=BUILDINGSURFACE:DETAILED, name=DIAGONAL-INTERIOR-WALL-FLOOR-2-SPACE-6 REVERSED\n   **   ~~~   ** Field [Construction Name] is required but was blank\n   ************* IDF Context for following error/warning message:\n   ************* Note -- lines truncated at 300 characters, if necessary...\n   *************   2398 BuildingSurface:Detailed,\n   ************* indicated Name=diagonal-interior-wall-floor-3-space-1 Reversed\n   ************* Only last 3 lines before error line shown.....\n   *************   2399   diagonal-interior-wall-floor-3-space-1 Reversed, !- Name\n   *************   2400   Wall,                                   !- Surface Type\n   *************   2401   ,                                       !- Construction Name\n   ** Severe  ** IP: IDF line~2401 Error detected in Object=BUILDINGSURFACE:DETAILED, name=DIAGONAL-INTERIOR-WALL-FLOOR-3-SPACE-1 REVERSED\n   **   ~~~   ** Field [Construction Name] is required but was blank\n   ************* IDF Context for following error/warning message:\n   ************* Note -- lines truncated at 300 characters, if necessary...\n   *************   2414 BuildingSurface:Detailed,\n   ************* indicated Name=diagonal-interior-wall-floor-3-space-2 Reversed\n   ************* Only last 3 lines before error line shown.....\n   *************   2415   diagonal-interior-wall-floor-3-space-2 Reversed, !- Name\n   *************   2416   Wall,                                   !- Surface Type\n   *************   2417   ,                                       !- Construction Name\n   ** Severe  ** IP: IDF line~2417 Error detected in Object=BUILDINGSURFACE:DETAILED, name=DIAGONAL-INTERIOR-WALL-FLOOR-3-SPACE-2 REVERSED\n   **   ~~~   ** Field [Construction Name] is required but was blank\n   ************* IDF Context for following error/warning message:\n   ************* Note -- lines truncated at 300 characters, if necessary...\n   *************   2430 BuildingSurface:Detailed,\n   ************* indicated Name=diagonal-interior-wall-floor-3-space-3 Reversed\n   ************* Only last 3 lines before error line shown.....\n   *************   2431   diagonal-interior-wall-floor-3-space-3 Reversed, !- Name\n   *************   2432   Wall,                                   !- Surface Type\n   *************   2433   ,                                       !- Construction Name\n   ** Severe  ** IP: IDF line~2433 Error detected in Object=BUILDINGSURFACE:DETAILED, name=DIAGONAL-INTERIOR-WALL-FLOOR-3-SPACE-3 REVERSED\n   **   ~~~   ** Field [Construction Name] is required but was blank\n   ************* IDF Context for following error/warning message:\n   ************* Note -- lines truncated at 300 characters, if necessary...\n   *************   2446 BuildingSurface:Detailed,\n   ************* indicated Name=diagonal-interior-wall-floor-3-space-4 Reversed\n   ************* Only last 3 lines before error line shown.....\n   *************   2447   diagonal-interior-wall-floor-3-space-4 Reversed, !- Name\n   *************   2448   Wall,                                   !- Surface Type\n   *************   2449   ,                                       !- Construction Name\n   ** Severe  ** IP: IDF line~2449 Error detected in Object=BUILDINGSURFACE:DETAILED, name=DIAGONAL-INTERIOR-WALL-FLOOR-3-SPACE-4 REVERSED\n   **   ~~~   ** Field [Construction Name] is required but was blank\n   ************* IDF Context for following error/warning message:\n   ************* Note -- lines truncated at 300 characters, if necessary...\n   *************   2462 BuildingSurface:Detailed,\n   ************* indicated Name=diagonal-interior-wall-floor-3-space-5 Reversed\n   ************* Only last 3 lines before error line shown.....\n   *************   2463   diagonal-interior-wall-floor-3-space-5 Reversed, !- Name\n   *************   2464   Wall,                                   !- Surface Type\n   *************   2465   ,                                       !- Construction Name\n   ** Severe  ** IP: IDF line~2465 Error detected in Object=BUILDINGSURFACE:DETAILED, name=DIAGONAL-INTERIOR-WALL-FLOOR-3-SPACE-5 REVERSED\n   **   ~~~   ** Field [Construction Name] is required but was blank\n   ************* IDF Context for following error/warning message:\n   ************* Note -- lines truncated at 300 characters, if necessary...\n   *************   2478 BuildingSurface:Detailed,\n   ************* indicated Name=diagonal-interior-wall-floor-3-space-6 Reversed\n   ************* Only last 3 lines before error line shown.....\n   *************   2479   diagonal-interior-wall-floor-3-space-6 Reversed, !- Name\n   *************   2480   Wall,                                   !- Surface Type\n   *************   2481   ,                                       !- Construction Name\n   ** Severe  ** IP: IDF line~2481 Error detected in Object=BUILDINGSURFACE:DETAILED, name=DIAGONAL-INTERIOR-WALL-FLOOR-3-SPACE-6 REVERSED\n   **   ~~~   ** Field [Construction Name] is required but was blank\n   ************* IDF Context for following error/warning message:\n   ************* Note -- lines truncated at 300 characters, if necessary...\n   *************   2494 BuildingSurface:Detailed,\n   ************* indicated Name=diagonal-interior-wall-floor-4-space-1 Reversed\n   ************* Only last 3 lines before error line shown.....\n   *************   2495   diagonal-interior-wall-floor-4-space-1 Reversed, !- Name\n   *************   2496   Wall,                                   !- Surface Type\n   *************   2497   ,                                       !- Construction Name\n   ** Severe  ** IP: IDF line~2497 Error detected in Object=BUILDINGSURFACE:DETAILED, name=DIAGONAL-INTERIOR-WALL-FLOOR-4-SPACE-1 REVERSED\n   **   ~~~   ** Field [Construction Name] is required but was blank\n   ************* IDF Context for following error/warning message:\n   ************* Note -- lines truncated at 300 characters, if necessary...\n   *************   2510 BuildingSurface:Detailed,\n   ************* indicated Name=diagonal-interior-wall-floor-4-space-2 Reversed\n   ************* Only last 3 lines before error line shown.....\n   *************   2511   diagonal-interior-wall-floor-4-space-2 Reversed, !- Name\n   *************   2512   Wall,                                   !- Surface Type\n   *************   2513   ,                                       !- Construction Name\n   ** Severe  ** IP: IDF line~2513 Error detected in Object=BUILDINGSURFACE:DETAILED, name=DIAGONAL-INTERIOR-WALL-FLOOR-4-SPACE-2 REVERSED\n   **   ~~~   ** Field [Construction Name] is required but was blank\n   ************* IDF Context for following error/warning message:\n   ************* Note -- lines truncated at 300 characters, if necessary...\n   *************   2526 BuildingSurface:Detailed,\n   ************* indicated Name=diagonal-interior-wall-floor-4-space-3 Reversed\n   ************* Only last 3 lines before error line shown.....\n   *************   2527   diagonal-interior-wall-floor-4-space-3 Reversed, !- Name\n   *************   2528   Wall,                                   !- Surface Type\n   *************   2529   ,                                       !- Construction Name\n   ** Severe  ** IP: IDF line~2529 Error detected in Object=BUILDINGSURFACE:DETAILED, name=DIAGONAL-INTERIOR-WALL-FLOOR-4-SPACE-3 REVERSED\n   **   ~~~   ** Field [Construction Name] is required but was blank\n   ************* IDF Context for following error/warning message:\n   ************* Note -- lines truncated at 300 characters, if necessary...\n   *************   2542 BuildingSurface:Detailed,\n   ************* indicated Name=diagonal-interior-wall-floor-4-space-4 Reversed\n   ************* Only last 3 lines before error line shown.....\n   *************   2543   diagonal-interior-wall-floor-4-space-4 Reversed, !- Name\n   *************   2544   Wall,                                   !- Surface Type\n   *************   2545   ,                                       !- Construction Name\n   ** Severe  ** IP: IDF line~2545 Error detected in Object=BUILDINGSURFACE:DETAILED, name=DIAGONAL-INTERIOR-WALL-FLOOR-4-SPACE-4 REVERSED\n   **   ~~~   ** Field [Construction Name] is required but was blank\n   ************* IDF Context for following error/warning message:\n   ************* Note -- lines truncated at 300 characters, if necessary...\n   *************   2558 BuildingSurface:Detailed,\n   ************* indicated Name=diagonal-interior-wall-floor-4-space-5 Reversed\n   ************* Only last 3 lines before error line shown.....\n   *************   2559   diagonal-interior-wall-floor-4-space-5 Reversed, !- Name\n   *************   2560   Wall,                                   !- Surface Type\n   *************   2561   ,                                       !- Construction Name\n   ** Severe  ** IP: IDF line~2561 Error detected in Object=BUILDINGSURFACE:DETAILED, name=DIAGONAL-INTERIOR-WALL-FLOOR-4-SPACE-5 REVERSED\n   **   ~~~   ** Field [Construction Name] is required but was blank\n   ************* IDF Context for following error/warning message:\n   ************* Note -- lines truncated at 300 characters, if necessary...\n   *************   2574 BuildingSurface:Detailed,\n   ************* indicated Name=diagonal-interior-wall-floor-4-space-6 Reversed\n   ************* Only last 3 lines before error line shown.....\n   *************   2575   diagonal-interior-wall-floor-4-space-6 Reversed, !- Name\n   *************   2576   Wall,                                   !- Surface Type\n   *************   2577   ,                                       !- Construction Name\n   ** Severe  ** IP: IDF line~2577 Error detected in Object=BUILDINGSURFACE:DETAILED, name=DIAGONAL-INTERIOR-WALL-FLOOR-4-SPACE-6 REVERSED\n   **   ~~~   ** Field [Construction Name] is required but was blank\n   ************* IDF Context for following error/warning message:\n   ************* Note -- lines truncated at 300 characters, if necessary...\n   *************   2590 BuildingSurface:Detailed,\n   ************* indicated Name=diagonal-interior-wall-floor-5-space-1 Reversed\n   ************* Only last 3 lines before error line shown.....\n   *************   2591   diagonal-interior-wall-floor-5-space-1 Reversed, !- Name\n   *************   2592   Wall,                                   !- Surface Type\n   *************   2593   ,                                       !- Construction Name\n   ** Severe  ** IP: IDF line~2593 Error detected in Object=BUILDINGSURFACE:DETAILED, name=DIAGONAL-INTERIOR-WALL-FLOOR-5-SPACE-1 REVERSED\n   **   ~~~   ** Field [Construction Name] is required but was blank\n   ************* IDF Context for following error/warning message:\n   ************* Note -- lines truncated at 300 characters, if necessary...\n   *************   2606 BuildingSurface:Detailed,\n   ************* indicated Name=diagonal-interior-wall-floor-5-space-2 Reversed\n   ************* Only last 3 lines before error line shown.....\n   *************   2607   diagonal-interior-wall-floor-5-space-2 Reversed, !- Name\n   *************   2608   Wall,                                   !- Surface Type\n   *************   2609   ,                                       !- Construction Name\n   ** Severe  ** IP: IDF line~2609 Error detected in Object=BUILDINGSURFACE:DETAILED, name=DIAGONAL-INTERIOR-WALL-FLOOR-5-SPACE-2 REVERSED\n   **   ~~~   ** Field [Construction Name] is required but was blank\n   ************* IDF Context for following error/warning message:\n   ************* Note -- lines truncated at 300 characters, if necessary...\n   *************   2622 BuildingSurface:Detailed,\n   ************* indicated Name=diagonal-interior-wall-floor-5-space-3 Reversed\n   ************* Only last 3 lines before error line shown.....\n   *************   2623   diagonal-interior-wall-floor-5-space-3 Reversed, !- Name\n   *************   2624   Wall,                                   !- Surface Type\n   *************   2625   ,                                       !- Construction Name\n   ** Severe  ** IP: IDF line~2625 Error detected in Object=BUILDINGSURFACE:DETAILED, name=DIAGONAL-INTERIOR-WALL-FLOOR-5-SPACE-3 REVERSED\n   **   ~~~   ** Field [Construction Name] is required but was blank\n   ************* IDF Context for following error/warning message:\n   ************* Note -- lines truncated at 300 characters, if necessary...\n   *************   2638 BuildingSurface:Detailed,\n   ************* indicated Name=diagonal-interior-wall-floor-5-space-4 Reversed\n   ************* Only last 3 lines before error line shown.....\n   *************   2639   diagonal-interior-wall-floor-5-space-4 Reversed, !- Name\n   *************   2640   Wall,                                   !- Surface Type\n   *************   2641   ,                                       !- Construction Name\n   ** Severe  ** IP: IDF line~2641 Error detected in Object=BUILDINGSURFACE:DETAILED, name=DIAGONAL-INTERIOR-WALL-FLOOR-5-SPACE-4 REVERSED\n   **   ~~~   ** Field [Construction Name] is required but was blank\n   ************* IDF Context for following error/warning message:\n   ************* Note -- lines truncated at 300 characters, if necessary...\n   *************   2654 BuildingSurface:Detailed,\n   ************* indicated Name=diagonal-interior-wall-floor-5-space-5 Reversed\n   ************* Only last 3 lines before error line shown.....\n   *************   2655   diagonal-interior-wall-floor-5-space-5 Reversed, !- Name\n   *************   2656   Wall,                                   !- Surface Type\n   *************   2657   ,                                       !- Construction Name\n   ** Severe  ** IP: IDF line~2657 Error detected in Object=BUILDINGSURFACE:DETAILED, name=DIAGONAL-INTERIOR-WALL-FLOOR-5-SPACE-5 REVERSED\n   **   ~~~   ** Field [Construction Name] is required but was blank\n   ************* IDF Context for following error/warning message:\n   ************* Note -- lines truncated at 300 characters, if necessary...\n   *************   2670 BuildingSurface:Detailed,\n   ************* indicated Name=diagonal-interior-wall-floor-5-space-6 Reversed\n   ************* Only last 3 lines before error line shown.....\n   *************   2671   diagonal-interior-wall-floor-5-space-6 Reversed, !- Name\n   *************   2672   Wall,                                   !- Surface Type\n   *************   2673   ,                                       !- Construction Name\n   ** Severe  ** IP: IDF line~2673 Error detected in Object=BUILDINGSURFACE:DETAILED, name=DIAGONAL-INTERIOR-WALL-FLOOR-5-SPACE-6 REVERSED\n   **   ~~~   ** Field [Construction Name] is required but was blank\n   ************* IDF Context for following error/warning message:\n   ************* Note -- lines truncated at 300 characters, if necessary...\n   *************   2686 BuildingSurface:Detailed,\n   ************* indicated Name=diagonal-interior-wall-floor-6-space-1 Reversed\n   ************* Only last 3 lines before error line shown.....\n   *************   2687   diagonal-interior-wall-floor-6-space-1 Reversed, !- Name\n   *************   2688   Wall,                                   !- Surface Type\n   *************   2689   ,                                       !- Construction Name\n   ** Severe  ** IP: IDF line~2689 Error detected in Object=BUILDINGSURFACE:DETAILED, name=DIAGONAL-INTERIOR-WALL-FLOOR-6-SPACE-1 REVERSED\n   **   ~~~   ** Field [Construction Name] is required but was blank\n   ************* IDF Context for following error/warning message:\n   ************* Note -- lines truncated at 300 characters, if necessary...\n   *************   2702 BuildingSurface:Detailed,\n   ************* indicated Name=diagonal-interior-wall-floor-6-space-2 Reversed\n   ************* Only last 3 lines before error line shown.....\n   *************   2703   diagonal-interior-wall-floor-6-space-2 Reversed, !- Name\n   *************   2704   Wall,                                   !- Surface Type\n   *************   2705   ,                                       !- Construction Name\n   ** Severe  ** IP: IDF line~2705 Error detected in Object=BUILDINGSURFACE:DETAILED, name=DIAGONAL-INTERIOR-WALL-FLOOR-6-SPACE-2 REVERSED\n   **   ~~~   ** Field [Construction Name] is required but was blank\n   ************* IDF Context for following error/warning message:\n   ************* Note -- lines truncated at 300 characters, if necessary...\n   *************   2718 BuildingSurface:Detailed,\n   ************* indicated Name=diagonal-interior-wall-floor-6-space-3 Reversed\n   ************* Only last 3 lines before error line shown.....\n   *************   2719   diagonal-interior-wall-floor-6-space-3 Reversed, !- Name\n   *************   2720   Wall,                                   !- Surface Type\n   *************   2721   ,                                       !- Construction Name\n   ** Severe  ** IP: IDF line~2721 Error detected in Object=BUILDINGSURFACE:DETAILED, name=DIAGONAL-INTERIOR-WALL-FLOOR-6-SPACE-3 REVERSED\n   **   ~~~   ** Field [Construction Name] is required but was blank\n   ************* IDF Context for following error/warning message:\n   ************* Note -- lines truncated at 300 characters, if necessary...\n   *************   2734 BuildingSurface:Detailed,\n   ************* indicated Name=diagonal-interior-wall-floor-6-space-4 Reversed\n   ************* Only last 3 lines before error line shown.....\n   *************   2735   diagonal-interior-wall-floor-6-space-4 Reversed, !- Name\n   *************   2736   Wall,                                   !- Surface Type\n   *************   2737   ,                                       !- Construction Name\n   ** Severe  ** IP: IDF line~2737 Error detected in Object=BUILDINGSURFACE:DETAILED, name=DIAGONAL-INTERIOR-WALL-FLOOR-6-SPACE-4 REVERSED\n   **   ~~~   ** Field [Construction Name] is required but was blank\n   ************* IDF Context for following error/warning message:\n   ************* Note -- lines truncated at 300 characters, if necessary...\n   *************   2750 BuildingSurface:Detailed,\n   ************* indicated Name=diagonal-interior-wall-floor-6-space-5 Reversed\n   ************* Only last 3 lines before error line shown.....\n   *************   2751   diagonal-interior-wall-floor-6-space-5 Reversed, !- Name\n   *************   2752   Wall,                                   !- Surface Type\n   *************   2753   ,                                       !- Construction Name\n   ** Severe  ** IP: IDF line~2753 Error detected in Object=BUILDINGSURFACE:DETAILED, name=DIAGONAL-INTERIOR-WALL-FLOOR-6-SPACE-5 REVERSED\n   **   ~~~   ** Field [Construction Name] is required but was blank\n   ************* IDF Context for following error/warning message:\n   ************* Note -- lines truncated at 300 characters, if necessary...\n   *************   2766 BuildingSurface:Detailed,\n   ************* indicated Name=diagonal-interior-wall-floor-6-space-6 Reversed\n   ************* Only last 3 lines before error line shown.....\n   *************   2767   diagonal-interior-wall-floor-6-space-6 Reversed, !- Name\n   *************   2768   Wall,                                   !- Surface Type\n   *************   2769   ,                                       !- Construction Name\n   ** Severe  ** IP: IDF line~2769 Error detected in Object=BUILDINGSURFACE:DETAILED, name=DIAGONAL-INTERIOR-WALL-FLOOR-6-SPACE-6 REVERSED\n   **   ~~~   ** Field [Construction Name] is required but was blank\n   ************* IDF Context for following error/warning message:\n   ************* Note -- lines truncated at 300 characters, if necessary...\n   *************   2782 BuildingSurface:Detailed,\n   ************* indicated Name=diagonal-interior-wall-floor-7-space-1 Reversed\n   ************* Only last 3 lines before error line shown.....\n   *************   2783   diagonal-interior-wall-floor-7-space-1 Reversed, !- Name\n   *************   2784   Wall,                                   !- Surface Type\n   *************   2785   ,                                       !- Construction Name\n   ** Severe  ** IP: IDF line~2785 Error detected in Object=BUILDINGSURFACE:DETAILED, name=DIAGONAL-INTERIOR-WALL-FLOOR-7-SPACE-1 REVERSED\n   **   ~~~   ** Field [Construction Name] is required but was blank\n   ************* IDF Context for following error/warning message:\n   ************* Note -- lines truncated at 300 characters, if necessary...\n   *************   2798 BuildingSurface:Detailed,\n   ************* indicated Name=diagonal-interior-wall-floor-7-space-2 Reversed\n   ************* Only last 3 lines before error line shown.....\n   *************   2799   diagonal-interior-wall-floor-7-space-2 Reversed, !- Name\n   *************   2800   Wall,                                   !- Surface Type\n   *************   2801   ,                                       !- Construction Name\n   ** Severe  ** IP: IDF line~2801 Error detected in Object=BUILDINGSURFACE:DETAILED, name=DIAGONAL-INTERIOR-WALL-FLOOR-7-SPACE-2 REVERSED\n   **   ~~~   ** Field [Construction Name] is required but was blank\n   ************* IDF Context for following error/warning message:\n   ************* Note -- lines truncated at 300 characters, if necessary...\n   *************   2814 BuildingSurface:Detailed,\n   ************* indicated Name=diagonal-interior-wall-floor-7-space-3 Reversed\n   ************* Only last 3 lines before error line shown.....\n   *************   2815   diagonal-interior-wall-floor-7-space-3 Reversed, !- Name\n   *************   2816   Wall,                                   !- Surface Type\n   *************   2817   ,                                       !- Construction Name\n   ** Severe  ** IP: IDF line~2817 Error detected in Object=BUILDINGSURFACE:DETAILED, name=DIAGONAL-INTERIOR-WALL-FLOOR-7-SPACE-3 REVERSED\n   **   ~~~   ** Field [Construction Name] is required but was blank\n   ************* IDF Context for following error/warning message:\n   ************* Note -- lines truncated at 300 characters, if necessary...\n   *************   2830 BuildingSurface:Detailed,\n   ************* indicated Name=diagonal-interior-wall-floor-7-space-4 Reversed\n   ************* Only last 3 lines before error line shown.....\n   *************   2831   diagonal-interior-wall-floor-7-space-4 Reversed, !- Name\n   *************   2832   Wall,                                   !- Surface Type\n   *************   2833   ,                                       !- Construction Name\n   ** Severe  ** IP: IDF line~2833 Error detected in Object=BUILDINGSURFACE:DETAILED, name=DIAGONAL-INTERIOR-WALL-FLOOR-7-SPACE-4 REVERSED\n   **   ~~~   ** Field [Construction Name] is required but was blank\n   ************* IDF Context for following error/warning message:\n   ************* Note -- lines truncated at 300 characters, if necessary...\n   *************   2846 BuildingSurface:Detailed,\n   ************* indicated Name=diagonal-interior-wall-floor-7-space-5 Reversed\n   ************* Only last 3 lines before error line shown.....\n   *************   2847   diagonal-interior-wall-floor-7-space-5 Reversed, !- Name\n   *************   2848   Wall,                                   !- Surface Type\n   *************   2849   ,                                       !- Construction Name\n   ** Severe  ** IP: IDF line~2849 Error detected in Object=BUILDINGSURFACE:DETAILED, name=DIAGONAL-INTERIOR-WALL-FLOOR-7-SPACE-5 REVERSED\n   **   ~~~   ** Field [Construction Name] is required but was blank\n   ************* IDF Context for following error/warning message:\n   ************* Note -- lines truncated at 300 characters, if necessary...\n   *************   2862 BuildingSurface:Detailed,\n   ************* indicated Name=diagonal-interior-wall-floor-7-space-6 Reversed\n   ************* Only last 3 lines before error line shown.....\n   *************   2863   diagonal-interior-wall-floor-7-space-6 Reversed, !- Name\n   *************   2864   Wall,                                   !- Surface Type\n   *************   2865   ,                                       !- Construction Name\n   ** Severe  ** IP: IDF line~2865 Error detected in Object=BUILDINGSURFACE:DETAILED, name=DIAGONAL-INTERIOR-WALL-FLOOR-7-SPACE-6 REVERSED\n   **   ~~~   ** Field [Construction Name] is required but was blank\n   ************* IDF Context for following error/warning message:\n   ************* Note -- lines truncated at 300 characters, if necessary...\n   *************   2878 BuildingSurface:Detailed,\n   ************* indicated Name=diagonal-interior-wall-floor-8-space-1 Reversed\n   ************* Only last 3 lines before error line shown.....\n   *************   2879   diagonal-interior-wall-floor-8-space-1 Reversed, !- Name\n   *************   2880   Wall,                                   !- Surface Type\n   *************   2881   ,                                       !- Construction Name\n   ** Severe  ** IP: IDF line~2881 Error detected in Object=BUILDINGSURFACE:DETAILED, name=DIAGONAL-INTERIOR-WALL-FLOOR-8-SPACE-1 REVERSED\n   **   ~~~   ** Field [Construction Name] is required but was blank\n   ************* IDF Context for following error/warning message:\n   ************* Note -- lines truncated at 300 characters, if necessary...\n   *************   2894 BuildingSurface:Detailed,\n   ************* indicated Name=diagonal-interior-wall-floor-8-space-2 Reversed\n   ************* Only last 3 lines before error line shown.....\n   *************   2895   diagonal-interior-wall-floor-8-space-2 Reversed, !- Name\n   *************   2896   Wall,                                   !- Surface Type\n   *************   2897   ,                                       !- Construction Name\n   ** Severe  ** IP: IDF line~2897 Error detected in Object=BUILDINGSURFACE:DETAILED, name=DIAGONAL-INTERIOR-WALL-FLOOR-8-SPACE-2 REVERSED\n   **   ~~~   ** Field [Construction Name] is required but was blank\n   ************* IDF Context for following error/warning message:\n   ************* Note -- lines truncated at 300 characters, if necessary...\n   *************   2910 BuildingSurface:Detailed,\n   ************* indicated Name=diagonal-interior-wall-floor-8-space-3 Reversed\n   ************* Only last 3 lines before error line shown.....\n   *************   2911   diagonal-interior-wall-floor-8-space-3 Reversed, !- Name\n   *************   2912   Wall,                                   !- Surface Type\n   *************   2913   ,                                       !- Construction Name\n   ** Severe  ** IP: IDF line~2913 Error detected in Object=BUILDINGSURFACE:DETAILED, name=DIAGONAL-INTERIOR-WALL-FLOOR-8-SPACE-3 REVERSED\n   **   ~~~   ** Field [Construction Name] is required but was blank\n   ************* IDF Context for following error/warning message:\n   ************* Note -- lines truncated at 300 characters, if necessary...\n   *************   2926 BuildingSurface:Detailed,\n   ************* indicated Name=diagonal-interior-wall-floor-8-space-4 Reversed\n   ************* Only last 3 lines before error line shown.....\n   *************   2927   diagonal-interior-wall-floor-8-space-4 Reversed, !- Name\n   *************   2928   Wall,                                   !- Surface Type\n   *************   2929   ,                                       !- Construction Name\n   ** Severe  ** IP: IDF line~2929 Error detected in Object=BUILDINGSURFACE:DETAILED, name=DIAGONAL-INTERIOR-WALL-FLOOR-8-SPACE-4 REVERSED\n   **   ~~~   ** Field [Construction Name] is required but was blank\n   ************* IDF Context for following error/warning message:\n   ************* Note -- lines truncated at 300 characters, if necessary...\n   *************   2942 BuildingSurface:Detailed,\n   ************* indicated Name=diagonal-interior-wall-floor-8-space-5 Reversed\n   ************* Only last 3 lines before error line shown.....\n   *************   2943   diagonal-interior-wall-floor-8-space-5 Reversed, !- Name\n   *************   2944   Wall,                                   !- Surface Type\n   *************   2945   ,                                       !- Construction Name\n   ** Severe  ** IP: IDF line~2945 Error detected in Object=BUILDINGSURFACE:DETAILED, name=DIAGONAL-INTERIOR-WALL-FLOOR-8-SPACE-5 REVERSED\n   **   ~~~   ** Field [Construction Name] is required but was blank\n   ************* IDF Context for following error/warning message:\n   ************* Note -- lines truncated at 300 characters, if necessary...\n   *************   2958 BuildingSurface:Detailed,\n   ************* indicated Name=diagonal-interior-wall-floor-8-space-6 Reversed\n   ************* Only last 3 lines before error line shown.....\n   *************   2959   diagonal-interior-wall-floor-8-space-6 Reversed, !- Name\n   *************   2960   Wall,                                   !- Surface Type\n   *************   2961   ,                                       !- Construction Name\n   ** Severe  ** IP: IDF line~2961 Error detected in Object=BUILDINGSURFACE:DETAILED, name=DIAGONAL-INTERIOR-WALL-FLOOR-8-SPACE-6 REVERSED\n   **   ~~~   ** Field [Construction Name] is required but was blank\n   ************* IDF Context for following error/warning message:\n   ************* Note -- lines truncated at 300 characters, if necessary...\n   *************   2974 BuildingSurface:Detailed,\n   ************* indicated Name=diagonal-interior-wall-floor-9-space-1 Reversed\n   ************* Only last 3 lines before error line shown.....\n   *************   2975   diagonal-interior-wall-floor-9-space-1 Reversed, !- Name\n   *************   2976   Wall,                                   !- Surface Type\n   *************   2977   ,                                       !- Construction Name\n   ** Severe  ** IP: IDF line~2977 Error detected in Object=BUILDINGSURFACE:DETAILED, name=DIAGONAL-INTERIOR-WALL-FLOOR-9-SPACE-1 REVERSED\n   **   ~~~   ** Field [Construction Name] is required but was blank\n   ************* IDF Context for following error/warning message:\n   ************* Note -- lines truncated at 300 characters, if necessary...\n   *************   2990 BuildingSurface:Detailed,\n   ************* indicated Name=diagonal-interior-wall-floor-9-space-2 Reversed\n   ************* Only last 3 lines before error line shown.....\n   *************   2991   diagonal-interior-wall-floor-9-space-2 Reversed, !- Name\n   *************   2992   Wall,                                   !- Surface Type\n   *************   2993   ,                                       !- Construction Name\n   ** Severe  ** IP: IDF line~2993 Error detected in Object=BUILDINGSURFACE:DETAILED, name=DIAGONAL-INTERIOR-WALL-FLOOR-9-SPACE-2 REVERSED\n   **   ~~~   ** Field [Construction Name] is required but was blank\n   ************* IDF Context for following error/warning message:\n   ************* Note -- lines truncated at 300 characters, if necessary...\n   *************   3006 BuildingSurface:Detailed,\n   ************* indicated Name=diagonal-interior-wall-floor-9-space-3 Reversed\n   ************* Only last 3 lines before error line shown.....\n   *************   3007   diagonal-interior-wall-floor-9-space-3 Reversed, !- Name\n   *************   3008   Wall,                                   !- Surface Type\n   *************   3009   ,                                       !- Construction Name\n   ** Severe  ** IP: IDF line~3009 Error detected in Object=BUILDINGSURFACE:DETAILED, name=DIAGONAL-INTERIOR-WALL-FLOOR-9-SPACE-3 REVERSED\n   **   ~~~   ** Field [Construction Name] is required but was blank\n   ************* IDF Context for following error/warning message:\n   ************* Note -- lines truncated at 300 characters, if necessary...\n   *************   3022 BuildingSurface:Detailed,\n   ************* indicated Name=diagonal-interior-wall-floor-9-space-4 Reversed\n   ************* Only last 3 lines before error line shown.....\n   *************   3023   diagonal-interior-wall-floor-9-space-4 Reversed, !- Name\n   *************   3024   Wall,                                   !- Surface Type\n   *************   3025   ,                                       !- Construction Name\n   ** Severe  ** IP: IDF line~3025 Error detected in Object=BUILDINGSURFACE:DETAILED, name=DIAGONAL-INTERIOR-WALL-FLOOR-9-SPACE-4 REVERSED\n   **   ~~~   ** Field [Construction Name] is required but was blank\n   ************* IDF Context for following error/warning message:\n   ************* Note -- lines truncated at 300 characters, if necessary...\n   *************   3038 BuildingSurface:Detailed,\n   ************* indicated Name=diagonal-interior-wall-floor-9-space-5 Reversed\n   ************* Only last 3 lines before error line shown.....\n   *************   3039   diagonal-interior-wall-floor-9-space-5 Reversed, !- Name\n   *************   3040   Wall,                                   !- Surface Type\n   *************   3041   ,                                       !- Construction Name\n   ** Severe  ** IP: IDF line~3041 Error detected in Object=BUILDINGSURFACE:DETAILED, name=DIAGONAL-INTERIOR-WALL-FLOOR-9-SPACE-5 REVERSED\n   **   ~~~   ** Field [Construction Name] is required but was blank\n   ************* IDF Context for following error/warning message:\n   ************* Note -- lines truncated at 300 characters, if necessary...\n   *************   3054 BuildingSurface:Detailed,\n   ************* indicated Name=diagonal-interior-wall-floor-9-space-6 Reversed\n   ************* Only last 3 lines before error line shown.....\n   *************   3055   diagonal-interior-wall-floor-9-space-6 Reversed, !- Name\n   *************   3056   Wall,                                   !- Surface Type\n   *************   3057   ,                                       !- Construction Name\n   ** Severe  ** IP: IDF line~3057 Error detected in Object=BUILDINGSURFACE:DETAILED, name=DIAGONAL-INTERIOR-WALL-FLOOR-9-SPACE-6 REVERSED\n   **   ~~~   ** Field [Construction Name] is required but was blank\n   ************* IDF Context for following error/warning message:\n   ************* Note -- lines truncated at 300 characters, if necessary...\n   *************   3070 BuildingSurface:Detailed,\n   ************* indicated Name=exterior-wall-floor-1-space-1\n   ************* Only last 3 lines before error line shown.....\n   *************   3071   exterior-wall-floor-1-space-1,          !- Name\n   *************   3072   Wall,                                   !- Surface Type\n   *************   3073   ,                                       !- Construction Name\n   ** Severe  ** IP: IDF line~3073 Error detected in Object=BUILDINGSURFACE:
[...]
 ************* Note -- lines truncated at 300 characters, if necessary...\n   *************  14494 BuildingSurface:Detailed,\n   ************* indicated Name=exterior-wall-floor-9-space-2\n   ************* Only last 3 lines before error line shown.....\n   *************  14495   exterior-wall-floor-9-space-2,          !- Name\n   *************  14496   Wall,                                   !- Surface Type\n   *************  14497   ,                                       !- Construction Name\n   ** Severe  ** IP: IDF line~14497 Error detected in Object=BUILDINGSURFACE:DETAILED, name=EXTERIOR-WALL-FLOOR-9-SPACE-2\n   **   ~~~   ** Field [Construction Name] is required but was blank\n   ************* IDF Context for following error/warning message:\n   ************* Note -- lines truncated at 300 characters, if necessary...\n   *************  14510 FenestrationSurface:Detailed,\n   ************* indicated Name=bw-opening-215\n   ************* Only last 3 lines before error line shown.....\n   *************  14511   bw-opening-215,                         !- Name\n   *************  14512   Window,                                 !- Surface Type\n   *************  14513   ,                                       !- Construction Name\n   ** Severe  ** IP: IDF line~14513 Error detected in Object=FENESTRATIONSURFACE:DETAILED, name=BW-OPENING-215\n   **   ~~~   ** Field [Construction Name] is required but was blank\n   ************* IDF Context for following error/warning message:\n   ************* Note -- lines truncated at 300 characters, if necessary...\n   *************  14526 BuildingSurface:Detailed,\n   ************* indicated Name=floor-9-space-2\n   ************* Only last 3 lines before error line shown.....\n   *************  14527   floor-9-space-2,                        !- Name\n   *************  14528   Floor,                                  !- Surface Type\n   *************  14529   ,                                       !- Construction Name\n   ** Severe  ** IP: IDF line~14529 Error detected in Object=BUILDINGSURFACE:DETAILED, name=FLOOR-9-SPACE-2\n   **   ~~~   ** Field [Construction Name] is required but was blank\n   ************* IDF Context for following error/warning message:\n   ************* Note -- lines truncated at 300 characters, if necessary...\n   *************  14542 BuildingSurface:Detailed,\n   ************* indicated Name=interior-wall-floor-9-space-2\n   ************* Only last 3 lines before error line shown.....\n   *************  14543   interior-wall-floor-9-space-2,          !- Name\n   *************  14544   Wall,                                   !- Surface Type\n   *************  14545   ,                                       !- Construction Name\n   ** Severe  ** IP: IDF line~14545 Error detected in Object=BUILDINGSURFACE:DETAILED, name=INTERIOR-WALL-FLOOR-9-SPACE-2\n   **   ~~~   ** Field [Construction Name] is required but was blank\n   ************* IDF Context for following error/warning message:\n   ************* Note -- lines truncated at 300 characters, if necessary...\n   *************  14572 BuildingSurface:Detailed,\n   ************* indicated Name=diagonal-interior-wall-floor-9-space-3\n   ************* Only last 3 lines before error line shown.....\n   *************  14573   diagonal-interior-wall-floor-9-space-3, !- Name\n   *************  14574   Wall,                                   !- Surface Type\n   *************  14575   ,                                       !- Construction Name\n   ** Severe  ** IP: IDF line~14575 Error detected in Object=BUILDINGSURFACE:DETAILED, name=DIAGONAL-INTERIOR-WALL-FLOOR-9-SPACE-3\n   **   ~~~   ** Field [Construction Name] is required but was blank\n   ************* IDF Context for following error/warning message:\n   ************* Note -- lines truncated at 300 characters, if necessary...\n   *************  14588 BuildingSurface:Detailed,\n   ************* indicated Name=exterior-wall-floor-9-space-3\n   ************* Only last 3 lines before error line shown.....\n   *************  14589   exterior-wall-floor-9-space-3,          !- Name\n   *************  14590   Wall,                                   !- Surface Type\n   *************  14591   ,                                       !- Construction Name\n   ** Severe  ** IP: IDF line~14591 Error detected in Object=BUILDINGSURFACE:DETAILED, name=EXTERIOR-WALL-FLOOR-9-SPACE-3\n   **   ~~~   ** Field [Construction Name] is required but was blank\n   ************* IDF Context for following error/warning message:\n   ************* Note -- lines truncated at 300 characters, if necessary...\n   *************  14604 FenestrationSurface:Detailed,\n   ************* indicated Name=bw-opening-219\n   ************* Only last 3 lines before error line shown.....\n   *************  14605   bw-opening-219,                         !- Name\n   *************  14606   Window,                                 !- Surface Type\n   *************  14607   ,                                       !- Construction Name\n   ** Severe  ** IP: IDF line~14607 Error detected in Object=FENESTRATIONSURFACE:DETAILED, name=BW-OPENING-219\n   **   ~~~   ** Field [Construction Name] is required but was blank\n   ************* IDF Context for following error/warning message:\n   ************* Note -- lines truncated at 300 characters, if necessary...\n   *************  14620 BuildingSurface:Detailed,\n   ************* indicated Name=floor-9-space-3\n   ************* Only last 3 lines before error line shown.....\n   *************  14621   floor-9-space-3,                        !- Name\n   *************  14622   Floor,                                  !- Surface Type\n   *************  14623   ,                                       !- Construction Name\n   ** Severe  ** IP: IDF line~14623 Error detected in Object=BUILDINGSURFACE:DETAILED, name=FLOOR-9-SPACE-3\n   **   ~~~   ** Field [Construction Name] is required but was blank\n   ************* IDF Context for following error/warning message:\n   ************* Note -- lines truncated at 300 characters, if necessary...\n   *************  14636 BuildingSurface:Detailed,\n   ************* indicated Name=interior-wall-floor-9-space-3\n   ************* Only last 3 lines before error line shown.....\n   *************  14637   interior-wall-floor-9-space-3,          !- Name\n   *************  14638   Wall,                                   !- Surface Type\n   *************  14639   ,                                       !- Construction Name\n   ** Severe  ** IP: IDF line~14639 Error detected in Object=BUILDINGSURFACE:DETAILED, name=INTERIOR-WALL-FLOOR-9-SPACE-3\n   **   ~~~   ** Field [Construction Name] is required but was blank\n   ************* IDF Context for following error/warning message:\n   ************* Note -- lines truncated at 300 characters, if necessary...\n   *************  14666 BuildingSurface:Detailed,\n   ************* indicated Name=diagonal-interior-wall-floor-9-space-4\n   ************* Only last 3 lines before error line shown.....\n   *************  14667   diagonal-interior-wall-floor-9-space-4, !- Name\n   *************  14668   Wall,                                   !- Surface Type\n   *************  14669   ,                                       !- Construction Name\n   ** Severe  ** IP: IDF line~14669 Error detected in Object=BUILDINGSURFACE:DETAILED, name=DIAGONAL-INTERIOR-WALL-FLOOR-9-SPACE-4\n   **   ~~~   ** Field [Construction Name] is required but was blank\n   ************* IDF Context for following error/warning message:\n   ************* Note -- lines truncated at 300 characters, if necessary...\n   *************  14682 BuildingSurface:Detailed,\n   ************* indicated Name=exterior-wall-floor-9-space-4\n   ************* Only last 3 lines before error line shown.....\n   *************  14683   exterior-wall-floor-9-space-4,          !- Name\n   *************  14684   Wall,                                   !- Surface Type\n   *************  14685   ,                                       !- Construction Name\n   ** Severe  ** IP: IDF line~14685 Error detected in Object=BUILDINGSURFACE:DETAILED, name=EXTERIOR-WALL-FLOOR-9-SPACE-4\n   **   ~~~   ** Field [Construction Name] is required but was blank\n   ************* IDF Context for following error/warning message:\n   ************* Note -- lines truncated at 300 characters, if necessary...\n   *************  14698 FenestrationSurface:Detailed,\n   ************* indicated Name=bw-opening-223\n   ************* Only last 3 lines before error line shown.....\n   *************  14699   bw-opening-223,                         !- Name\n   *************  14700   Window,                                 !- Surface Type\n   *************  14701   ,                                       !- Construction Name\n   ** Severe  ** IP: IDF line~14701 Error detected in Object=FENESTRATIONSURFACE:DETAILED, name=BW-OPENING-223\n   **   ~~~   ** Field [Construction Name] is required but was blank\n   ************* IDF Context for following error/warning message:\n   ************* Note -- lines truncated at 300 characters, if necessary...\n   *************  14714 BuildingSurface:Detailed,\n   ************* indicated Name=floor-9-space-4\n   ************* Only last 3 lines before error line shown.....\n   *************  14715   floor-9-space-4,                        !- Name\n   *************  14716   Floor,                                  !- Surface Type\n   *************  14717   ,                                       !- Construction Name\n   ** Severe  ** IP: IDF line~14717 Error detected in Object=BUILDINGSURFACE:DETAILED, name=FLOOR-9-SPACE-4\n   **   ~~~   ** Field [Construction Name] is required but was blank\n   ************* IDF Context for following error/warning message:\n   ************* Note -- lines truncated at 300 characters, if necessary...\n   *************  14730 BuildingSurface:Detailed,\n   ************* indicated Name=interior-wall-floor-9-space-4\n   ************* Only last 3 lines before error line shown.....\n   *************  14731   interior-wall-floor-9-space-4,          !- Name\n   *************  14732   Wall,                                   !- Surface Type\n   *************  14733   ,                                       !- Construction Name\n   ** Severe  ** IP: IDF line~14733 Error detected in Object=BUILDINGSURFACE:DETAILED, name=INTERIOR-WALL-FLOOR-9-SPACE-4\n   **   ~~~   ** Field [Construction Name] is required but was blank\n   ************* IDF Context for following error/warning message:\n   ************* Note -- lines truncated at 300 characters, if necessary...\n   *************  14760 BuildingSurface:Detailed,\n   ************* indicated Name=diagonal-interior-wall-floor-9-space-5\n   ************* Only last 3 lines before error line shown.....\n   *************  14761   diagonal-interior-wall-floor-9-space-5, !- Name\n   *************  14762   Wall,                                   !- Surface Type\n   *************  14763   ,                                       !- Construction Name\n   ** Severe  ** IP: IDF line~14763 Error detected in Object=BUILDINGSURFACE:DETAILED, name=DIAGONAL-INTERIOR-WALL-FLOOR-9-SPACE-5\n   **   ~~~   ** Field [Construction Name] is required but was blank\n   ************* IDF Context for following error/warning message:\n   ************* Note -- lines truncated at 300 characters, if necessary...\n   *************  14776 BuildingSurface:Detailed,\n   ************* indicated Name=exterior-wall-floor-9-space-5\n   ************* Only last 3 lines before error line shown.....\n   *************  14777   exterior-wall-floor-9-space-5,          !- Name\n   *************  14778   Wall,                                   !- Surface Type\n   *************  14779   ,                                       !- Construction Name\n   ** Severe  ** IP: IDF line~14779 Error detected in Object=BUILDINGSURFACE:DETAILED, name=EXTERIOR-WALL-FLOOR-9-SPACE-5\n   **   ~~~   ** Field [Construction Name] is required but was blank\n   ************* IDF Context for following error/warning message:\n   ************* Note -- lines truncated at 300 characters, if necessary...\n   *************  14792 FenestrationSurface:Detailed,\n   ************* indicated Name=bw-opening-227\n   ************* Only last 3 lines before error line shown.....\n   *************  14793   bw-opening-227,                         !- Name\n   *************  14794   Window,                                 !- Surface Type\n   *************  14795   ,                                       !- Construction Name\n   ** Severe  ** IP: IDF line~14795 Error detected in Object=FENESTRATIONSURFACE:DETAILED, name=BW-OPENING-227\n   **   ~~~   ** Field [Construction Name] is required but was blank\n   ************* IDF Context for following error/warning message:\n   ************* Note -- lines truncated at 300 characters, if necessary...\n   *************  14808 BuildingSurface:Detailed,\n   ************* indicated Name=floor-9-space-5\n   ************* Only last 3 lines before error line shown.....\n   *************  14809   floor-9-space-5,                        !- Name\n   *************  14810   Floor,                                  !- Surface Type\n   *************  14811   ,                                       !- Construction Name\n   ** Severe  ** IP: IDF line~14811 Error detected in Object=BUILDINGSURFACE:DETAILED, name=FLOOR-9-SPACE-5\n   **   ~~~   ** Field [Construction Name] is required but was blank\n   ************* IDF Context for following error/warning message:\n   ************* Note -- lines truncated at 300 characters, if necessary...\n   *************  14824 BuildingSurface:Detailed,\n   ************* indicated Name=interior-wall-floor-9-space-5\n   ************* Only last 3 lines before error line shown.....\n   *************  14825   interior-wall-floor-9-space-5,          !- Name\n   *************  14826   Wall,                                   !- Surface Type\n   *************  14827   ,                                       !- Construction Name\n   ** Severe  ** IP: IDF line~14827 Error detected in Object=BUILDINGSURFACE:DETAILED, name=INTERIOR-WALL-FLOOR-9-SPACE-5\n   **   ~~~   ** Field [Construction Name] is required but was blank\n   ************* IDF Context for following error/warning message:\n   ************* Note -- lines truncated at 300 characters, if necessary...\n   *************  14854 BuildingSurface:Detailed,\n   ************* indicated Name=diagonal-interior-wall-floor-9-space-6\n   ************* Only last 3 lines before error line shown.....\n   *************  14855   diagonal-interior-wall-floor-9-space-6, !- Name\n   *************  14856   Wall,                                   !- Surface Type\n   *************  14857   ,                                       !- Construction Name\n   ** Severe  ** IP: IDF line~14857 Error detected in Object=BUILDINGSURFACE:DETAILED, name=DIAGONAL-INTERIOR-WALL-FLOOR-9-SPACE-6\n   **   ~~~   ** Field [Construction Name] is required but was blank\n   ************* IDF Context for following error/warning message:\n   ************* Note -- lines truncated at 300 characters, if necessary...\n   *************  14870 BuildingSurface:Detailed,\n   ************* indicated Name=exterior-wall-floor-9-space-6\n   ************* Only last 3 lines before error line shown.....\n   *************  14871   exterior-wall-floor-9-space-6,          !- Name\n   *************  14872   Wall,                                   !- Surface Type\n   *************  14873   ,                                       !- Construction Name\n   ** Severe  ** IP: IDF line~14873 Error detected in Object=BUILDINGSURFACE:DETAILED, name=EXTERIOR-WALL-FLOOR-9-SPACE-6\n   **   ~~~   ** Field [Construction Name] is required but was blank\n   ************* IDF Context for following error/warning message:\n   ************* Note -- lines truncated at 300 characters, if necessary...\n   *************  14886 FenestrationSurface:Detailed,\n   ************* indicated Name=bw-opening-231\n   ************* Only last 3 lines before error line shown.....\n   *************  14887   bw-opening-231,                         !- Name\n   *************  14888   Window,                                 !- Surface Type\n   *************  14889   ,                                       !- Construction Name\n   ** Severe  ** IP: IDF line~14889 Error detected in Object=FENESTRATIONSURFACE:DETAILED, name=BW-OPENING-231\n   **   ~~~   ** Field [Construction Name] is required but was blank\n   ************* IDF Context for following error/warning message:\n   ************* Note -- lines truncated at 300 characters, if necessary...\n   *************  14902 BuildingSurface:Detailed,\n   ************* indicated Name=floor-9-space-6\n   ************* Only last 3 lines before error line shown.....\n   *************  14903   floor-9-space-6,                        !- Name\n   *************  14904   Floor,                                  !- Surface Type\n   *************  14905   ,                                       !- Construction Name\n   ** Severe  ** IP: IDF line~14905 Error detected in Object=BUILDINGSURFACE:DETAILED, name=FLOOR-9-SPACE-6\n   **   ~~~   ** Field [Construction Name] is required but was blank\n   ************* IDF Context for following error/warning message:\n   ************* Note -- lines truncated at 300 characters, if necessary...\n   *************  14918 BuildingSurface:Detailed,\n   ************* indicated Name=interior-wall-floor-9-space-6\n   ************* Only last 3 lines before error line shown.....\n   *************  14919   interior-wall-floor-9-space-6,          !- Name\n   *************  14920   Wall,                                   !- Surface Type\n   *************  14921   ,                                       !- Construction Name\n   ** Severe  ** IP: IDF line~14921 Error detected in Object=BUILDINGSURFACE:DETAILED, name=INTERIOR-WALL-FLOOR-9-SPACE-6\n   **   ~~~   ** Field [Construction Name] is required but was blank\n   ************* IDF Context for following error/warning message:\n   ************* Note -- lines truncated at 300 characters, if necessary...\n   *************  14948 BuildingSurface:Detailed,\n   ************* indicated Name=slab-floor-9\n   ************* Only last 3 lines before error line shown.....\n   *************  14949   slab-floor-9,                           !- Name\n   *************  14950   Floor,                                  !- Surface Type\n   *************  14951   ,                                       !- Construction Name\n   ** Severe  ** IP: IDF line~14951 Error detected in Object=BUILDINGSURFACE:DETAILED, name=SLAB-FLOOR-9\n   **   ~~~   ** Field [Construction Name] is required but was blank\n   ** Severe  ** IP: Blank \"required\" fields found in input\n   ** Severe  ** IP: Out of \"range\" values and/or blank required fields found in input\n   **  Fatal  ** IP: Errors occurred on processing IDF file. Preceding condition(s) cause termination.\n   ...Summary of Errors that led to program termination:\n   ..... Reference severe error count=738\n   ..... Last severe error=IP: Out of \"range\" values and/or blank required fields found in input\n   ************* Warning:  Node connection errors not checked - most system input has not been read (see previous warning).\n   ************* Fatal error -- final processing.  Program exited before simulations began.  See previous error messages.\n   ************* EnergyPlus Warmup Error Summary. During Warmup: 0 Warning; 0 Severe Errors.\n   ************* EnergyPlus Sizing Error Summary. During Sizing: 0 Warning; 0 Severe Errors.\n   ************* EnergyPlus Terminated--Fatal Error Detected. 0 Warning; 738 Severe Errors; Elapsed Time=00hr 00min  0.45sec\n",
   "hash" : "337180C4",
   "seed_file" : "../t2.osm",
   "started_at" : "20171029T074440Z",
   "steps" : [],
   "updated_at" : "20171029T074452Z",
   "weather_file" : "USA_CA_San.Francisco.724940_TMY2.epw"
}
