{
   "completed_at" : "20171030T231202Z",
   "completed_status" : "Fail",
   "created_at" : "20171030T230851Z",
   "current_step" : 0,
   "eplusout_err" : "Program Version,EnergyPlus, Version 8.8.0-7c3bbe4830, YMD=2017.10.30 16:12,IDD_Version 8.8.0\n   ************* IDF Context for following error/warning message:\n   ************* Note -- lines truncated at 300 characters, if necessary...\n   *************    260 BuildingSurface:Detailed,\n   ************* indicated Name=diagonal-interior-wall-floor-1-space-1\n   ************* Only last 3 lines before error line shown.....\n   *************    261   diagonal-interior-wall-floor-1-space-1, !- Name\n   *************    262   Wall,                                   !- Surface Type\n   *************    263   ,                                       !- Construction Name\n   ** Severe  ** IP: IDF line~263 Error detected in Object=BUILDINGSURFACE:DETAILED, name=DIAGONAL-INTERIOR-WALL-FLOOR-1-SPACE-1\n   **   ~~~   ** Field [Construction Name] is required but was blank\n   ************* IDF Context for following error/warning message:\n   ************* Note -- lines truncated at 300 characters, if necessary...\n   *************    276 BuildingSurface:Detailed,\n   ************* indicated Name=diagonal-interior-wall-floor-1-space-4 Reversed\n   ************* Only last 3 lines before error line shown.....\n   *************    277   diagonal-interior-wall-floor-1-space-4 Reversed, !- Name\n   *************    278   Wall,                                   !- Surface Type\n   *************    279   ,                                       !- Construction Name\n   ** Severe  ** IP: IDF line~279 Error detected in Object=BUILDINGSURFACE:DETAILED, name=DIAGONAL-INTERIOR-WALL-FLOOR-1-SPACE-4 REVERSED\n   **   ~~~   ** Field [Construction Name] is required but was blank\n   ************* IDF Context for following error/warning message:\n   ************* Note -- lines truncated at 300 characters, if necessary...\n   *************    292 BuildingSurface:Detailed,\n   ************* indicated Name=exterior-wall-floor-1-space-1\n   ************* Only last 3 lines before error line shown.....\n   *************    293   exterior-wall-floor-1-space-1,          !- Name\n   *************    294   Wall,                                   !- Surface Type\n   *************    295   ,                                       !- Construction Name\n   ** Severe  ** IP: IDF line~295 Error detected in Object=BUILDINGSURFACE:DETAILED, name=EXTERIOR-WALL-FLOOR-1-SPACE-1\n   **   ~~~   ** Field [Construction Name] is required but was blank\n   ************* IDF Context for following error/warning message:\n   ************* Note -- lines truncated at 300 characters, if necessary...\n   *************    308 FenestrationSurface:Detailed,\n   ************* indicated Name=bw-opening-4\n   ************* Only last 3 lines before error line shown.....\n   *************    309   bw-opening-4,                           !- Name\n   *************    310   Window,                                 !- Surface Type\n   *************    311   ,                                       !- Construction Name\n   ** Severe  ** IP: IDF line~311 Error detected in Object=FENESTRATIONSURFACE:DETAILED, name=BW-OPENING-4\n   **   ~~~   ** Field [Construction Name] is required but was blank\n   ************* IDF Context for following error/warning message:\n   ************* Note -- lines truncated at 300 characters, if necessary...\n   *************    324 BuildingSurface:Detailed,\n   ************* indicated Name=floor-1-space-1\n   ************* Only last 3 lines before error line shown.....\n   *************    325   floor-1-space-1,                        !- Name\n   *************    326   Floor,                                  !- Surface Type\n   *************    327   ,                                       !- Construction Name\n   ** Severe  ** IP: IDF line~327 Error detected in Object=BUILDINGSURFACE:DETAILED, name=FLOOR-1-SPACE-1\n   **   ~~~   ** Field [Construction Name] is required but was blank\n   ************* IDF Context for following error/warning message:\n   ************* Note -- lines truncated at 300 characters, if necessary...\n   *************    340 BuildingSurface:Detailed,\n   ************* indicated Name=interior-wall-floor-1-space-1\n   ************* Only last 3 lines before error line shown.....\n   *************    341   interior-wall-floor-1-space-1,          !- Name\n   *************    342   Wall,                                   !- Surface Type\n   *************    343   ,                                       !- Construction Name\n   ** Severe  ** IP: IDF line~343 Error detected in Object=BUILDINGSURFACE:DETAILED, name=INTERIOR-WALL-FLOOR-1-SPACE-1\n   **   ~~~   ** Field [Construction Name] is required but was blank\n   ************* IDF Context for following error/warning message:\n   ************* Note -- lines truncated at 300 characters, if necessary...\n   *************    356 BuildingSurface:Detailed,\n   ************* indicated Name=roof-floor-1-space-1\n   ************* Only last 3 lines before error line shown.....\n   *************    357   roof-floor-1-space-1,                   !- Name\n   *************    358   Roof,                                   !- Surface Type\n   *************    359   ,                                       !- Construction Name\n   ** Severe  ** IP: IDF line~359 Error detected in Object=BUILDINGSURFACE:DETAILED, name=ROOF-FLOOR-1-SPACE-1\n   **   ~~~   ** Field [Construction Name] is required but was blank\n   ************* IDF Context for following error/warning message:\n   ************* Note -- lines truncated at 300 characters, if necessary...\n   *************    386 BuildingSurface:Detailed,\n   ************* indicated Name=diagonal-interior-wall-floor-1-space-1 Reversed\n   ************* Only last 3 lines before error line shown.....\n   *************    387   diagonal-interior-wall-floor-1-space-1 Reversed, !- Name\n   *************    388   Wall,                                   !- Surface Type\n   *************    389   ,                                       !- Construction Name\n   ** Severe  ** IP: IDF line~389 Error detected in Object=BUILDINGSURFACE:DETAILED, name=DIAGONAL-INTERIOR-WALL-FLOOR-1-SPACE-1 REVERSED\n   **   ~~~   ** Field [Construction Name] is required but was blank\n   ************* IDF Context for following error/warning message:\n   ************* Note -- lines truncated at 300 characters, if necessary...\n   *************    402 BuildingSurface:Detailed,\n   ************* indicated Name=diagonal-interior-wall-floor-1-space-2\n   ************* Only last 3 lines before error line shown.....\n   *************    403   diagonal-interior-wall-floor-1-space-2, !- Name\n   *************    404   Wall,                                   !- Surface Type\n   *************    405   ,                                       !- Construction Name\n   ** Severe  ** IP: IDF line~405 Error detected in Object=BUILDINGSURFACE:DETAILED, name=DIAGONAL-INTERIOR-WALL-FLOOR-1-SPACE-2\n   **   ~~~   ** Field [Construction Name] is required but was blank\n   ************* IDF Context for following error/warning message:\n   ************* Note -- lines truncated at 300 characters, if necessary...\n   *************    418 BuildingSurface:Detailed,\n   ************* indicated Name=exterior-wall-floor-1-space-2\n   ************* Only last 3 lines before error line shown.....\n   *************    419   exterior-wall-floor-1-space-2,          !- Name\n   *************    420   Wall,                                   !- Surface Type\n   *************    421   ,                                       !- Construction Name\n   ** Severe  ** IP: IDF line~421 Error detected in Object=BUILDINGSURFACE:DETAILED, name=EXTERIOR-WALL-FLOOR-1-SPACE-2\n   **   ~~~   ** Field [Construction Name] is required but was blank\n   ************* IDF Context for following error/warning message:\n   ************* Note -- lines truncated at 300 characters, if necessary...\n   *************    434 FenestrationSurface:Detailed,\n   ************* indicated Name=bw-opening-9\n   ************* Only last 3 lines before error line shown.....\n   *************    435   bw-opening-9,                           !- Name\n   *************    436   Window,                                 !- Surface Type\n   *************    437   ,                                       !- Construction Name\n   ** Severe  ** IP: IDF line~437 Error detected in Object=FENESTRATIONSURFACE:DETAILED, name=BW-OPENING-9\n   **   ~~~   ** Field [Construction Name] is required but was blank\n   ************* IDF Context for following error/warning message:\n   ************* Note -- lines truncated at 300 characters, if necessary...\n   *************    450 BuildingSurface:Detailed,\n   ************* indicated Name=floor-1-space-2\n   ************* Only last 3 lines before error line shown.....\n   *************    451   floor-1-space-2,                        !- Name\n   *************    452   Floor,                                  !- Surface Type\n   *************    453   ,                                       !- Construction Name\n   ** Severe  ** IP: IDF line~453 Error detected in Object=BUILDINGSURFACE:DETAILED, name=FLOOR-1-SPACE-2\n   **   ~~~   ** Field [Construction Name] is required but was blank\n   ************* IDF Context for following error/warning message:\n   ************* Note -- lines truncated at 300 characters, if necessary...\n   *************    466 BuildingSurface:Detailed,\n   ************* indicated Name=interior-wall-floor-1-space-2\n   ************* Only last 3 lines before error line shown.....\n   *************    467   interior-wall-floor-1-space-2,          !- Name\n   *************    468   Wall,                                   !- Surface Type\n   *************    469   ,                                       !- Construction Name\n   ** Severe  ** IP: IDF line~469 Error detected in Object=BUILDINGSURFACE:DETAILED, name=INTERIOR-WALL-FLOOR-1-SPACE-2\n   **   ~~~   ** Field [Construction Name] is required but was blank\n   ************* IDF Context for following error/warning message:\n   ************* Note -- lines truncated at 300 characters, if necessary...\n   *************    482 BuildingSurface:Detailed,\n   ************* indicated Name=roof-floor-1-space-2\n   ************* Only last 3 lines before error line shown.....\n   *************    483   roof-floor-1-space-2,                   !- Name\n   *************    484   Roof,                                   !- Surface Type\n   *************    485   ,                                       !- Construction Name\n   ** Severe  ** IP: IDF line~485 Error detected in Object=BUILDINGSURFACE:DETAILED, name=ROOF-FLOOR-1-SPACE-2\n   **   ~~~   ** Field [Construction Name] is required but was blank\n   ************* IDF Context for following error/warning message:\n   ************* Note -- lines truncated at 300 characters, if necessary...\n   *************    512 BuildingSurface:Detailed,\n   ************* indicated Name=diagonal-interior-wall-floor-1-space-2 Reversed\n   ************* Only last 3 lines before error line shown.....\n   *************    513   diagonal-interior-wall-floor-1-space-2 Reversed, !- Name\n   *************    514   Wall,                                   !- Surface Type\n   *************    515   ,                                       !- Construction Name\n   ** Severe  ** IP: IDF line~515 Error detected in Object=BUILDINGSURFACE:DETAILED, name=DIAGONAL-INTERIOR-WALL-FLOOR-1-SPACE-2 REVERSED\n   **   ~~~   ** Field [Construction Name] is required but was blank\n   ************* IDF Context for following error/warning message:\n   ************* Note -- lines truncated at 300 characters, if necessary...\n   *************    528 BuildingSurface:Detailed,\n   ************* indicated Name=diagonal-interior-wall-floor-1-space-3\n   ************* Only last 3 lines before error line shown.....\n   *************    529   diagonal-interior-wall-floor-1-space-3, !- Name\n   *************    530   Wall,                                   !- Surface Type\n   *************    531   ,                                       !- Construction Name\n   ** Severe  ** IP: IDF line~531 Error detected in Object=BUILDINGSURFACE:DETAILED, name=DIAGONAL-INTERIOR-WALL-FLOOR-1-SPACE-3\n   **   ~~~   ** Field [Construction Name] is required but was blank\n   ************* IDF Context for following error/warning message:\n   ************* Note -- lines truncated at 300 characters, if necessary...\n   *************    544 BuildingSurface:Detailed,\n   ************* indicated Name=exterior-wall-floor-1-space-3\n   ************* Only last 3 lines before error line shown.....\n   *************    545   exterior-wall-floor-1-space-3,          !- Name\n   *************    546   Wall,                                   !- Surface Type\n   *************    547   ,                                       !- Construction Name\n   ** Severe  ** IP: IDF line~547 Error detected in Object=BUILDINGSURFACE:DETAILED, name=EXTERIOR-WALL-FLOOR-1-SPACE-3\n   **   ~~~   ** Field [Construction Name] is required but was blank\n   ************* IDF Context for following error/warning message:\n   ************* Note -- lines truncated at 300 characters, if necessary...\n   *************    560 FenestrationSurface:Detailed,\n   ************* indicated Name=bw-opening-14\n   ************* Only last 3 lines before error line shown.....\n   *************    561   bw-opening-14,                          !- Name\n   *************    562   Window,                                 !- Surface Type\n   *************    563   ,                                       !- Construction Name\n   ** Severe  ** IP: IDF line~563 Error detected in Object=FENESTRATIONSURFACE:DETAILED, name=BW-OPENING-14\n   **   ~~~   ** Field [Construction Name] is required but was blank\n   ************* IDF Context for following error/warning message:\n   ************* Note -- lines truncated at 300 characters, if necessary...\n   *************    576 BuildingSurface:Detailed,\n   ************* indicated Name=floor-1-space-3\n   ************* Only last 3 lines before error line shown.....\n   *************    577   floor-1-space-3,                        !- Name\n   *************    578   Floor,                                  !- Surface Type\n   *************    579   ,                                       !- Construction Name\n   ** Severe  ** IP: IDF line~579 Error detected in Object=BUILDINGSURFACE:DETAILED, name=FLOOR-1-SPACE-3\n   **   ~~~   ** Field [Construction Name] is required but was blank\n   ************* IDF Context for following error/warning message:\n   ************* Note -- lines truncated at 300 characters, if necessary...\n   *************    592 BuildingSurface:Detailed,\n   ************* indicated Name=interior-wall-floor-1-space-3\n   ************* Only last 3 lines before error line shown.....\n   *************    593   interior-wall-floor-1-space-3,          !- Name\n   *************    594   Wall,                                   !- Surface Type\n   *************    595   ,                                       !- Construction Name\n   ** Severe  ** IP: IDF line~595 Error detected in Object=BUILDINGSURFACE:DETAILED, name=INTERIOR-WALL-FLOOR-1-SPACE-3\n   **   ~~~   ** Field [Construction Name] is required but was blank\n   ************* IDF Context for following error/warning message:\n   ************* Note -- lines truncated at 300 characters, if necessary...\n   *************    608 BuildingSurface:Detailed,\n   ************* indicated Name=roof-floor-1-space-3\n   ************* Only last 3 lines before error line shown.....\n   *************    609   roof-floor-1-space-3,                   !- Name\n   *************    610   Roof,                                   !- Surface Type\n   *************    611   ,                                       !- Construction Name\n   ** Severe  ** IP: IDF line~611 Error detected in Object=BUILDINGSURFACE:DETAILED, name=ROOF-FLOOR-1-SPACE-3\n   **   ~~~   ** Field [Construction Name] is required but was blank\n   ************* IDF Context for following error/warning message:\n   ************* Note -- lines truncated at 300 characters, if necessary...\n   *************    638 BuildingSurface:Detailed,\n   ************* indicated Name=diagonal-interior-wall-floor-1-space-3 Reversed\n   ************* Only last 3 lines before error line shown.....\n   *************    639   diagonal-interior-wall-floor-1-space-3 Reversed, !- Name\n   *************    640   Wall,                                   !- Surface Type\n   *************    641   ,                                       !- Construction Name\n   ** Severe  ** IP: IDF line~641 Error detected in Object=BUILDINGSURFACE:DETAILED, name=DIAGONAL-INTERIOR-WALL-FLOOR-1-SPACE-3 REVERSED\n   **   ~~~   ** Field [Construction Name] is required but was blank\n   ************* IDF Context for following error/warning message:\n   ************* Note -- lines truncated at 300 characters, if necessary...\n   *************    654 BuildingSurface:Detailed,\n   ************* indicated Name=diagonal-interior-wall-floor-1-space-4\n   ************* Only last 3 lines before error line shown.....\n   *************    655   diagonal-interior-wall-floor-1-space-4, !- Name\n   *************    656   Wall,                                   !- Surface Type\n   *************    657   ,                                       !- Construction Name\n   ** Severe  ** IP: IDF line~657 Error detected in Object=BUILDINGSURFACE:DETAILED, name=DIAGONAL-INTERIOR-WALL-FLOOR-1-SPACE-4\n   **   ~~~   ** Field [Construction Name] is required but was blank\n   ************* IDF Context for following error/warning message:\n   ************* Note -- lines truncated at 300 characters, if necessary...\n   *************    670 BuildingSurface:Detailed,\n   ************* indicated Name=exterior-wall-floor-1-space-4\n   ************* Only last 3 lines before error line shown.....\n   *************    671   exterior-wall-floor-1-space-4,          !- Name\n   *************    672   Wall,                                   !- Surface Type\n   *************    673   ,                                       !- Construction Name\n   ** Severe  ** IP: IDF line~673 Error detected in Object=BUILDINGSURFACE:DETAILED, name=EXTERIOR-WALL-FLOOR-1-SPACE-4\n   **   ~~~   ** Field [Construction Name] is required but was blank\n   ************* IDF Context for following error/warning message:\n   ************* Note -- lines truncated at 300 characters, if necessary...\n   *************    686 FenestrationSurface:Detailed,\n   ************* indicated Name=bw-opening-19\n   ************* Only last 3 lines before error line shown.....\n   *************    687   bw-opening-19,                          !- Name\n   *************    688   Window,                                 !- Surface Type\n   *************    689   ,                                       !- Construction Name\n   ** Severe  ** IP: IDF line~689 Error detected in Object=FENESTRATIONSURFACE:DETAILED, name=BW-OPENING-19\n   **   ~~~   ** Field [Construction Name] is required but was blank\n   ************* IDF Context for following error/warning message:\n   ************* Note -- lines truncated at 300 characters, if necessary...\n   *************    702 BuildingSurface:Detailed,\n   ************* indicated Name=floor-1-space-4\n   ************* Only last 3 lines before error line shown.....\n   *************    703   floor-1-space-4,                        !- Name\n   *************    704   Floor,                                  !- Surface Type\n   *************    705   ,                                       !- Construction Name\n   ** Severe  ** IP: IDF line~705 Error detected in Object=BUILDINGSURFACE:DETAILED, name=FLOOR-1-SPACE-4\n   **   ~~~   ** Field [Construction Name] is required but was blank\n   ************* IDF Context for following error/warning message:\n   ************* Note -- lines truncated at 300 characters, if necessary...\n   *************    718 BuildingSurface:Detailed,\n   ************* indicated Name=interior-wall-floor-1-space-4\n   ************* Only last 3 lines before error line shown.....\n   *************    719   interior-wall-floor-1-space-4,          !- Name\n   *************    720   Wall,                                   !- Surface Type\n   *************    721   ,                                       !- Construction Name\n   ** Severe  ** IP: IDF line~721 Error detected in Object=BUILDINGSURFACE:DETAILED, name=INTERIOR-WALL-FLOOR-1-SPACE-4\n   **   ~~~   ** Field [Construction Name] is required but was blank\n   ************* IDF Context for following error/warning message:\n   ************* Note -- lines truncated at 300 characters, if necessary...\n   *************    734 BuildingSurface:Detailed,\n   ************* indicated Name=roof-floor-1-space-4\n   ************* Only last 3 lines before error line shown.....\n   *************    735   roof-floor-1-space-4,                   !- Name\n   *************    736   Roof,                                   !- Surface Type\n   *************    737   ,                                       !- Construction Name\n   ** Severe  ** IP: IDF line~737 Error detected in Object=BUILDINGSURFACE:DETAILED, name=ROOF-FLOOR-1-SPACE-4\n   **   ~~~   ** Field [Construction Name] is required but was blank\n   ************* IDF Context for following error/warning message:\n   ************* Note -- lines truncated at 300 characters, if necessary...\n   *************    764 BuildingSurface:Detailed,\n   ************* indicated Name=interior-wall-floor-1-space-1 Reversed\n   ************* Only last 3 lines before error line shown.....\n   *************    765   interior-wall-floor-1-space-1 Reversed, !- Name\n   *************    766   Wall,                                   !- Surface Type\n   *************    767   ,                                       !- Construction Name\n   ** Severe  ** IP: IDF line~767 Error detected in Object=BUILDINGSURFACE:DETAILED, name=INTERIOR-WALL-FLOOR-1-SPACE-1 REVERSED\n   **   ~~~   ** Field [Construction Name] is required but was blank\n   ************* IDF Context for following error/warning message:\n   ************* Note -- lines truncated at 300 characters, if necessary...\n   *************    780 BuildingSurface:Detailed,\n   ************* indicated Name=interior-wall-floor-1-space-2 Reversed\n   ************* Only last 3 lines before error line shown.....\n   *************    781   interior-wall-floor-1-space-2 Reversed, !- Name\n   *************    782   Wall,                                   !- Surface Type\n   *************    783   ,                                       !- Construction Name\n   ** Severe  ** IP: IDF line~783 Error detected in Object=BUILDINGSURFACE:DETAILED, name=INTERIOR-WALL-FLOOR-1-SPACE-2 REVERSED\n   **   ~~~   ** Field [Construction Name] is required but was blank\n   ************* IDF Context for following error/warning message:\n   ************* Note -- lines truncated at 300 characters, if necessary...\n   *************    796 BuildingSurface:Detailed,\n   ************* indicated Name=interior-wall-floor-1-space-3 Reversed\n   ************* Only last 3 lines before error line shown.....\n   *************    797   interior-wall-floor-1-space-3 Reversed, !- Name\n   *************    798   Wall,                                   !- Surface Type\n   *************    799   ,                                       !- Construction Name\n   ** Severe  ** IP: IDF line~799 Error detected in Object=BUILDINGSURFACE:DETAILED, name=INTERIOR-WALL-FLOOR-1-SPACE-3 REVERSED\n   **   ~~~   ** Field [Construction Name] is required but was blank\n   ************* IDF Context for following error/warning message:\n   ************* Note -- lines truncated at 300 characters, if necessary...\n   *************    812 BuildingSurface:Detailed,\n   ************* indicated Name=interior-wall-floor-1-space-4 Reversed\n   ************* Only last 3 lines before error line shown.....\n   *************    813   interior-wall-floor-1-space-4 Reversed, !- Name\n   *************    814   Wall,                                   !- Surface Type\n   *************    815   ,                                       !- Construction Name\n   ** Severe  ** IP: IDF line~815 Error detected in Object=BUILDINGSURFACE:DETAILED, name=INTERIOR-WALL-FLOOR-1-SPACE-4 REVERSED\n   **   ~~~   ** Field [Construction Name] is required but was blank\n   ************* IDF Context for following error/warning message:\n   ************* Note -- lines truncated at 300 characters, if necessary...\n   *************    828 BuildingSurface:Detailed,\n   ************* indicated Name=slab-floor-0\n   ************* Only last 3 lines before error line shown.....\n   *************    829   slab-floor-0,                           !- Name\n   *************    830   Floor,                                  !- Surface Type\n   *************    831   ,                                       !- Construction Name\n   ** Severe  ** IP: IDF line~831 Error detected in Object=BUILDINGSURFACE:DETAILED, name=SLAB-FLOOR-0\n   **   ~~~   ** Field [Construction Name] is required but was blank\n   ************* IDF Context for following error/warning message:\n   ************* Note -- lines truncated at 300 characters, if necessary...\n   *************    844 BuildingSurface:Detailed,\n   ************* indicated Name={227a60e5-ba1b-48ce-badd-899dd210e3a8}\n   ************* Only last 3 lines before error line shown.....\n   *************    845   {227a60e5-ba1b-48ce-badd-899dd210e3a8}, !- Name\n   *************    846   Roof,                                   !- Surface Type\n   *************    847   ,                                       !- Construction Name\n   ** Severe  ** IP: IDF line~847 Error detected in Object=BUILDINGSURFACE:DETAILED, name={227A60E5-BA1B-48CE-BADD-899DD210E3A8}\n   **   ~~~   ** Field [Construction Name] is required but was blank\n   ** Severe  ** IP: Blank \"required\" fields found in input\n   ** Severe  ** IP: Out of \"range\" values and/or blank required fields found in input\n   **  Fatal  ** IP: Errors occurred on processing IDF file. Preceding condition(s) cause termination.\n   ...Summary of Errors that led to program termination:\n   ..... Reference severe error count=36\n   ..... Last severe error=IP: Out of \"range\" values and/or blank required fields found in input\n   ************* Warning:  Node connection errors not checked - most system input has not been read (see previous warning).\n   ************* Fatal error -- final processing.  Program exited before simulations began.  See previous error messages.\n   ************* EnergyPlus Warmup Error Summary. During Warmup: 0 Warning; 0 Severe Errors.\n   ************* EnergyPlus Sizing Error Summary. During Sizing: 0 Warning; 0 Severe Errors.\n   ************* EnergyPlus Terminated--Fatal Error Detected. 0 Warning; 36 Severe Errors; Elapsed Time=00hr 00min  0.25sec\n",
   "hash" : "3C3D999B",
   "seed_file" : "../test.osm",
   "started_at" : "20171030T231152Z",
   "steps" : [],
   "updated_at" : "20171030T231202Z",
   "weather_file" : "USA_CA_San.Francisco.724940_TMY2.epw"
}
