{
   "completed_at" : "20171030T090554Z",
   "completed_status" : "Fail",
   "created_at" : "20171030T090511Z",
   "current_step" : 0,
   "eplusout_err" : "Program Version,EnergyPlus, Version 8.8.0-7c3bbe4830, YMD=2017.10.30 02:05,IDD_Version 8.8.0\n   ************* IDF Context for following error/warning message:\n   ************* Note -- lines truncated at 300 characters, if necessary...\n   *************    225 BuildingSurface:Detailed,\n   ************* indicated Name=B-00_110-E-F-58\n   ************* Only last 3 lines before error line shown.....\n   *************    226   B-00_110-E-F-58,                        !- Name\n   *************    227   Floor,                                  !- Surface Type\n   *************    228   ,                                       !- Construction Name\n   ** Severe  ** IP: IDF line~228 Error detected in Object=BUILDINGSURFACE:DETAILED, name=B-00_110-E-F-58\n   **   ~~~   ** Field [Construction Name] is required but was blank\n   ************* IDF Context for following error/warning message:\n   ************* Note -- lines truncated at 300 characters, if necessary...\n   *************    241 BuildingSurface:Detailed,\n   ************* indicated Name=B-00_111-E-F-63\n   ************* Only last 3 lines before error line shown.....\n   *************    242   B-00_111-E-F-63,                        !- Name\n   *************    243   Floor,                                  !- Surface Type\n   *************    244   ,                                       !- Construction Name\n   ** Severe  ** IP: IDF line~244 Error detected in Object=BUILDINGSURFACE:DETAILED, name=B-00_111-E-F-63\n   **   ~~~   ** Field [Construction Name] is required but was blank\n   ************* IDF Context for following error/warning message:\n   ************* Note -- lines truncated at 300 characters, if necessary...\n   *************    257 BuildingSurface:Detailed,\n   ************* indicated Name=B-00_112-E-F-70\n   ************* Only last 3 lines before error line shown.....\n   *************    258   B-00_112-E-F-70,                        !- Name\n   *************    259   Floor,                                  !- Surface Type\n   *************    260   ,                                       !- Construction Name\n   ** Severe  ** IP: IDF line~260 Error detected in Object=BUILDINGSURFACE:DETAILED, name=B-00_112-E-F-70\n   **   ~~~   ** Field [Construction Name] is required but was blank\n   ************* IDF Context for following error/warning message:\n   ************* Note -- lines truncated at 300 characters, if necessary...\n   *************    273 BuildingSurface:Detailed,\n   ************* indicated Name=B-00_113-E-F-76\n   ************* Only last 3 lines before error line shown.....\n   *************    274   B-00_113-E-F-76,                        !- Name\n   *************    275   Floor,                                  !- Surface Type\n   *************    276   ,                                       !- Construction Name\n   ** Severe  ** IP: IDF line~276 Error detected in Object=BUILDINGSURFACE:DETAILED, name=B-00_113-E-F-76\n   **   ~~~   ** Field [Construction Name] is required but was blank\n   ************* IDF Context for following error/warning message:\n   ************* Note -- lines truncated at 300 characters, if necessary...\n   *************    293 BuildingSurface:Detailed,\n   ************* indicated Name=B-00_123-E-F-163\n   ************* Only last 3 lines before error line shown.....\n   *************    294   B-00_123-E-F-163,                       !- Name\n   *************    295   Floor,                                  !- Surface Type\n   *************    296   ,                                       !- Construction Name\n   ** Severe  ** IP: IDF line~296 Error detected in Object=BUILDINGSURFACE:DETAILED, name=B-00_123-E-F-163\n   **   ~~~   ** Field [Construction Name] is required but was blank\n   ************* IDF Context for following error/warning message:\n   ************* Note -- lines truncated at 300 characters, if necessary...\n   *************    309 BuildingSurface:Detailed,\n   ************* indicated Name=B-00_129-E-F-185\n   ************* Only last 3 lines before error line shown.....\n   *************    310   B-00_129-E-F-185,                       !- Name\n   *************    311   Floor,                                  !- Surface Type\n   *************    312   ,                                       !- Construction Name\n   ** Severe  ** IP: IDF line~312 Error detected in Object=BUILDINGSURFACE:DETAILED, name=B-00_129-E-F-185\n   **   ~~~   ** Field [Construction Name] is required but was blank\n   ************* IDF Context for following error/warning message:\n   ************* Note -- lines truncated at 300 characters, if necessary...\n   *************    325 BuildingSurface:Detailed,\n   ************* indicated Name=B-00_130-E-F-194\n   ************* Only last 3 lines before error line shown.....\n   *************    326   B-00_130-E-F-194,                       !- Name\n   *************    327   Floor,                                  !- Surface Type\n   *************    328   ,                                       !- Construction Name\n   ** Severe  ** IP: IDF line~328 Error detected in Object=BUILDINGSURFACE:DETAILED, name=B-00_130-E-F-194\n   **   ~~~   ** Field [Construction Name] is required but was blank\n   ************* IDF Context for following error/warning message:\n   ************* Note -- lines truncated at 300 characters, if necessary...\n   *************    345 BuildingSurface:Detailed,\n   ************* indicated Name=B-B1_100-E-F-425\n   ************* Only last 3 lines before error line shown.....\n   *************    346   B-B1_100-E-F-425,                       !- Name\n   *************    347   Floor,                                  !- Surface Type\n   *************    348   ,                                       !- Construction Name\n   ** Severe  ** IP: IDF line~348 Error detected in Object=BUILDINGSURFACE:DETAILED, name=B-B1_100-E-F-425\n   **   ~~~   ** Field [Construction Name] is required but was blank\n   ************* IDF Context for following error/warning message:\n   ************* Note -- lines truncated at 300 characters, if necessary...\n   *************    361 BuildingSurface:Detailed,\n   ************* indicated Name=B-B1_101-E-F-431\n   ************* Only last 3 lines before error line shown.....\n   *************    362   B-B1_101-E-F-431,                       !- Name\n   *************    363   Floor,                                  !- Surface Type\n   *************    364   ,                                       !- Construction Name\n   ** Severe  ** IP: IDF line~364 Error detected in Object=BUILDINGSURFACE:DETAILED, name=B-B1_101-E-F-431\n   **   ~~~   ** Field [Construction Name] is required but was blank\n   ************* IDF Context for following error/warning message:\n   ************* Note -- lines truncated at 300 characters, if necessary...\n   *************    377 BuildingSurface:Detailed,\n   ************* indicated Name=B-B1_102-E-F-437\n   ************* Only last 3 lines before error line shown.....\n   *************    378   B-B1_102-E-F-437,                       !- Name\n   *************    379   Floor,                                  !- Surface Type\n   *************    380   ,                                       !- Construction Name\n   ** Severe  ** IP: IDF line~380 Error detected in Object=BUILDINGSURFACE:DETAILED, name=B-B1_102-E-F-437\n   **   ~~~   ** Field [Construction Name] is required but was blank\n   ************* IDF Context for following error/warning message:\n   ************* Note -- lines truncated at 300 characters, if necessary...\n   *************    393 BuildingSurface:Detailed,\n   ************* indicated Name=B-B1_103-E-F-441\n   ************* Only last 3 lines before error line shown.....\n   *************    394   B-B1_103-E-F-441,                       !- Name\n   *************    395   Floor,                                  !- Surface Type\n   *************    396   ,                                       !- Construction Name\n   ** Severe  ** IP: IDF line~396 Error detected in Object=BUILDINGSURFACE:DETAILED, name=B-B1_103-E-F-441\n   **   ~~~   ** Field [Construction Name] is required but was blank\n   ************* IDF Context for following error/warning message:\n   ************* Note -- lines truncated at 300 characters, if necessary...\n   *************    409 BuildingSurface:Detailed,\n   ************* indicated Name=B-B1_104-E-F-446\n   ************* Only last 3 lines before error line shown.....\n   *************    410   B-B1_104-E-F-446,                       !- Name\n   *************    411   Floor,                                  !- Surface Type\n   *************    412   ,                                       !- Construction Name\n   ** Severe  ** IP: IDF line~412 Error detected in Object=BUILDINGSURFACE:DETAILED, name=B-B1_104-E-F-446\n   **   ~~~   ** Field [Construction Name] is required but was blank\n   ************* IDF Context for following error/warning message:\n   ************* Note -- lines truncated at 300 characters, if necessary...\n   *************    435 BuildingSurface:Detailed,\n   ************* indicated Name=B-B1_105-E-F-460\n   ************* Only last 3 lines before error line shown.....\n   *************    436   B-B1_105-E-F-460,                       !- Name\n   *************    437   Floor,                                  !- Surface Type\n   *************    438   ,                                       !- Construction Name\n   ** Severe  ** IP: IDF line~438 Error detected in Object=BUILDINGSURFACE:DETAILED, name=B-B1_105-E-F-460\n   **   ~~~   ** Field [Construction Name] is required but was blank\n   ************* IDF Context for following error/warning message:\n   ************* Note -- lines truncated at 300 characters, if necessary...\n   *************    453 BuildingSurface:Detailed,\n   ************* indicated Name=B-B1_106-E-F-464\n   ************* Only last 3 lines before error line shown.....\n   *************    454   B-B1_106-E-F-464,                       !- Name\n   *************    455   Floor,                                  !- Surface Type\n   *************    456   ,                                       !- Construction Name\n   ** Severe  ** IP: IDF line~456 Error detected in Object=BUILDINGSURFACE:DETAILED, name=B-B1_106-E-F-464\n   **   ~~~   ** Field [Construction Name] is required but was blank\n   ************* IDF Context for following error/warning message:\n   ************* Note -- lines truncated at 300 characters, if necessary...\n   *************    473 BuildingSurface:Detailed,\n   ************* indicated Name=B-B1_107-E-F-470\n   ************* Only last 3 lines before error line shown.....\n   *************    474   B-B1_107-E-F-470,                       !- Name\n   *************    475   Floor,                                  !- Surface Type\n   *************    476   ,                                       !- Construction Name\n   ** Severe  ** IP: IDF line~476 Error detected in Object=BUILDINGSURFACE:DETAILED, name=B-B1_107-E-F-470\n   **   ~~~   ** Field [Construction Name] is required but was blank\n   ************* IDF Context for following error/warning message:\n   ************* Note -- lines truncated at 300 characters, if necessary...\n   *************    493 BuildingSurface:Detailed,\n   ************* indicated Name=B-B1_108-E-F-474\n   ************* Only last 3 lines before error line shown.....\n   *************    494   B-B1_108-E-F-474,                       !- Name\n   *************    495   Floor,                                  !- Surface Type\n   *************    496   ,                                       !- Construction Name\n   ** Severe  ** IP: IDF line~496 Error detected in Object=BUILDINGSURFACE:DETAILED, name=B-B1_108-E-F-474\n   **   ~~~   ** Field [Construction Name] is required but was blank\n   ************* IDF Context for following error/warning message:\n   ************* Note -- lines truncated at 300 characters, if necessary...\n   *************    509 BuildingSurface:Detailed,\n   ************* indicated Name=B-B1_109-E-F-480\n   ************* Only last 3 lines before error line shown.....\n   *************    510   B-B1_109-E-F-480,                       !- Name\n   *************    511   Floor,                                  !- Surface Type\n   *************    512   ,                                       !- Construction Name\n   ** Severe  ** IP: IDF line~512 Error detected in Object=BUILDINGSURFACE:DETAILED, name=B-B1_109-E-F-480\n   **   ~~~   ** Field [Construction Name] is required but was blank\n   ************* IDF Context for following error/warning message:\n   ************* Note -- lines truncated at 300 characters, if necessary...\n   *************    537 BuildingSurface:Detailed,\n   ************* indicated Name=E-00_113-E-W-75\n   ************* Only last 3 lines before error line shown.....\n   *************    538   E-00_113-E-W-75,                        !- Name\n   *************    539   Wall,                                   !- Surface Type\n   *************    540   ,                                       !- Construction Name\n   ** Severe  ** IP: IDF line~540 Error detected in Object=BUILDINGSURFACE:DETAILED, name=E-00_113-E-W-75\n   **   ~~~   ** Field [Construction Name] is required but was blank\n   ************* IDF Context for following error/warning message:\n   ************* Note -- lines truncated at 300 characters, if necessary...\n   *************    553 FenestrationSurface:Detailed,\n   ************* indicated Name=E-00_113-E-W-75-W-1\n   ************* Only last 3 lines before error line shown.....\n   *************    554   E-00_113-E-W-75-W-1,                    !- Name\n   *************    555   Window,                                 !- Surface Type\n   *************    556   ,                                       !- Construction Name\n   ** Severe  ** IP: IDF line~556 Error detected in Object=FENESTRATIONSURFACE:DETAILED, name=E-00_113-E-W-75-W-1\n   **   ~~~   ** Field [Construction Name] is required but was blank\n   ************* IDF Context for following error/warning message:\n   ************* Note -- lines truncated at 300 characters, if necessary...\n   *************    569 FenestrationSurface:Detailed,\n   ************* indicated Name=E-00_113-E-W-75-W-2\n   ************* Only last 3 lines before error line shown.....\n   *************    570   E-00_113-E-W-75-W-2,                    !- Name\n   *************    571   Window,                                 !- Surface Type\n   *************    572   ,                                       !- Construction Name\n   ** Severe  ** IP: IDF line~572 Error detected in Object=FENESTRATIONSURFACE:DETAILED, name=E-00_113-E-W-75-W-2\n   **   ~~~   ** Field [Construction Name] is required but was blank\n   ************* IDF Context for following error/warning message:\n   ************* Note -- lines truncated at 300 characters, if necessary...\n   *************    585 FenestrationSurface:Detailed,\n   ************* indicated Name=E-00_113-E-W-75-W-3\n   ************* Only last 3 lines before error line shown.....\n   *************    586   E-00_113-E-W-75-W-3,                    !- Name\n   *************    587   Window,                                 !- Surface Type\n   *************    588   ,                                       !- Construction Name\n   ** Severe  ** IP: IDF line~588 Error detected in Object=FENESTRATIONSURFACE:DETAILED, name=E-00_113-E-W-75-W-3\n   **   ~~~   ** Field [Construction Name] is required but was blank\n   ************* IDF Context for following error/warning message:\n   ************* Note -- lines truncated at 300 characters, if necessary...\n   *************    601 BuildingSurface:Detailed,\n   ************* indicated Name=E-00_130-E-W-192\n   ************* Only last 3 lines before error line shown.....\n   *************    602   E-00_130-E-W-192,                       !- Name\n   *************    603   Wall,                                   !- Surface Type\n   *************    604   ,                                       !- Construction Name\n   ** Severe  ** IP: IDF line~604 Error detected in Object=BUILDINGSURFACE:DETAILED, name=E-00_130-E-W-192\n   **   ~~~   ** Field [Construction Name] is required but was blank\n   ************* IDF Context for following error/warning message:\n   ************* Note -- lines truncated at 300 characters, if necessary...\n   *************    617 FenestrationSurface:Detailed,\n   ************* indicated Name=E-00_130-E-W-192-W-1\n   ************* Only last 3 lines before error line shown.....\n   *************    618   E-00_130-E-W-192-W-1,                   !- Name\n   *************    619   Window,                                 !- Surface Type\n   *************    620   ,                                       !- Construction Name\n   ** Severe  ** IP: IDF line~620 Error detected in Object=FENESTRATIONSURFACE:DETAILED, name=E-00_130-E-W-192-W-1\n   **   ~~~   ** Field [Construction Name] is required but was blank\n   ************* IDF Context for following error/warning message:\n   ************* Note -- lines truncated at 300 characters, if necessary...\n   *************    633 FenestrationSurface:Detailed,\n   ************* indicated Name=E-00_130-E-W-192-W-2\n   ************* Only last 3 lines before error line shown.....\n   *************    634   E-00_130-E-W-192-W-2,                   !- Name\n   *************    635   Window,                                 !- Surface Type\n   *************    636   ,                                       !- Construction Name\n   ** Severe  ** IP: IDF line~636 Error detected in Object=FENESTRATIONSURFACE:DETAILED, name=E-00_130-E-W-192-W-2\n   **   ~~~   ** Field [Construction Name] is required but was blank\n   ************* IDF Context for following error/warning message:\n   ************* Note -- lines truncated at 300 characters, if necessary...\n   *************    649 FenestrationSurface:Detailed,\n   ************* indicated Name=E-00_130-E-W-192-W-3\n   ************* Only last 3 lines before error line shown.....\n   *************    650   E-00_130-E-W-192-W-3,                   !- Name\n   *************    651   Window,                                 !- Surface Type\n   *************    652   ,                                       !- Construction Name\n   ** Severe  ** IP: IDF line~652 Error detected in Object=FENESTRATIONSURFACE:DETAILED, name=E-00_130-E-W-192-W-3\n   **   ~~~   ** Field [Construction Name] is required but was blank\n   ************* IDF Context for following error/warning message:\n   ************* Note -- lines truncated at 300 characters, if necessary...\n   *************    665 FenestrationSurface:Detailed,\n   ************* indicated Name=E-00_130-E-W-192-W-4\n   ************* Only last 3 lines before error line shown.....\n   *************    666   E-00_130-E-W-192-W-4,                   !- Name\n   *************    667   Window,                                 !- Surface Type\n   *************    668   ,                                       !- Construction Name\n   ** Severe  ** IP: IDF line~668 Error detected in Object=FENESTRATIONSURFACE:DETAILED, name=E-00_130-E-W-192-W-4\n   **   ~~~   ** Field [Construction Name] is required but was blank\n   ************* IDF Context for following error/warning message:\n   ************* Note -- lines truncated at 300 characters, if necessary...\n   *************    681 BuildingSurface:Detailed,\n   ************* indicated Name=E-01_115-E-W-277\n   ************* Only last 3 lines before error line shown.....\n   *************    682   E-01_115-E-W-277,                       !- Name\n   *************    683   Wall,                                   !- Surface Type\n   *************    684   ,                                       !- Construction Name\n   ** Severe  ** IP: IDF line~684 Error detected in Object=BUILDINGSURFACE:DETAILED, name=E-01_115-E-W-277\n   **   ~~~   ** Field [Construction Name] is required but was blank\n   ************* IDF Context for following error/warning message:\n   ************* Note -- lines truncated at 300 characters, if necessary...\n   *************    697 FenestrationSurface:Detailed,\n   ************* indicated Name=E-01_115-E-W-277-W-1\n   ************* Only last 3 lines before error line shown.....\n   *************    698   E-01_115-E-W-277-W-1,                   !- Name\n   *************    699   Window,                                 !- Surface Type\n   *************    700   ,                                       !- Construction Name\n   ** Severe  ** IP: IDF line~700 Error detected in Object=FENESTRATIONSURFACE:DETAILED, name=E-01_115-E-W-277-W-1\n   **   ~~~   ** Field [Construction Name] is required but was blank\n   ************* IDF Context for following error/warning message:\n   ************* Note -- lines truncated at 300 characters, if necessary...\n   *************    713 BuildingSurface:Detailed,\n   ************* indicated Name=E-01_116-E-W-284\n   ************* Only last 3 lines before error line shown.....\n   *************    714   E-01_116-E-W-284,                       !- Name\n   *************    715   Wall,                                   !- Surface Type\n   *************    716   ,                                       !- Construction Name\n   ** Severe  ** IP: IDF line~716 Error detected in Object=BUILDINGSURFACE:DETAILED, name=E-01_116-E-W-284\n   **   ~~~   ** Field [Construction Name] is required but was blank\n   ************* IDF Context for following error/warning message:\n   ************* Note -- lines truncated at 300 characters, if necessary...\n   *************    729 FenestrationSurface:Detailed,\n   ************* indicated Name=E-01_116-E-W-284-W-1\n   ************* Only last 3 lines before error line shown.....\n   *************    730   E-01_116-E-W-284-W-1,                   !- Name\n   *************    731   Window,                                 !- Surface Type\n   *************    732   ,                                       !- Construction Name\n   ** Severe  ** IP: IDF line~732 Error detected in Object=FENESTRATIONSURFACE:DETAILED, name=E-01_116-E-W-284-W-1\n   **   ~~~   ** Field [Construction Name] is required but was blank\n   ************* IDF Context for following error/warning message:\n   ************* Note -- lines truncated at 300 characters, if necessary...\n   *************    745 FenestrationSurface:Detailed,\n   ************* indicated Name=E-01_116-E-W-284-W-2\n   ************* Only last 3 lines before error line shown.....\n   *************    746   E-01_116-E-W-284-W-2,                   !- Name\n   *************    747   Window,                                 !- Surface Type\n   *************    748   ,                                       !- Construction Name\n   ** Severe  ** IP: IDF line~748 Error detected in Object=FENESTRATIONSURFACE:DETAILED, name=E-01_116-E-W-284-W-2\n   **   ~~~   ** Field [Construction Name] is required but was blank\n   ************* IDF Context for following error/warning message:\n   ************* Note -- lines truncated at 300 characters, if necessary...\n   *************    761 BuildingSurface:Detailed,\n   ************* indicated Name=E-01_117-E-W-288\n   ************* Only last 3 lines before error line shown.....\n   *************    762   E-01_117-E-W-288,                       !- Name\n   *************    763   Wall,                                   !- Surface Type\n   *************    764   ,                                       !- Construction Name\n   ** Severe  ** IP: IDF line~764 Error detected in Object=BUILDINGSURFACE:DETAILED, name=E-01_117-E-W-288\n   **   ~~~   ** Field [Construction Name] is required but was blank\n   ************* IDF Context for following error/warning message:\n   ************* Note -- lines truncated at 300 characters, if necessary...\n   *************    777 FenestrationSurface:Detailed,\n   ************* indicated Name=E-01_117-E-W-288-W-1\n   ************* Only last 3 lines before error line shown.....\n   *************    778   E-01_117-E-W-288-W-1,                   !- Name\n   *************    779   Window,                                 !- Surface Type\n   *************    780   ,                                       !- Construction Name\n   ** Severe  ** IP: IDF line~780 Error detected in Object=FENESTRATIONSURFACE:DETAILED, name=E-01_117-E-W-288-W-1\n   **   ~~~   ** Field [Construction Name] is required but was blank\n   ************* IDF Context for following error/warning message:\n   ************* Note -- lines truncated at 300 characters, if necessary...\n   *************    793 FenestrationSurface:Detailed,\n   ************* indicated Name=E-01_117-E-W-288-W-2\n   ************* Only last 3 lines before error line shown.....\n   *************    794   E-01_117-E-W-288-W-2,                   !- Name\n   *************    795   Window,                                 !- Surface Type\n   *************    796   ,                                       !- Construction Name\n   ** Severe  ** IP: IDF line~796 Error detected in Object=FENESTRATIONSURFACE:DETAILED, name=E-01_117-E-W-288-W-2\n   **   ~~~   ** Field [Construction Name] is required but was blank\n   ************* IDF Context for following error/warning message:\n   ************* Note -- lines truncated at 300 characters, if necessary...\n   *************    809 FenestrationSurface:Detailed,\n   ************* indicated Name=E-01_117-E-W-288-W-3\n   ************* Only last 3 lines before error line shown.....\n   *************    810   E-01_117-E-W-288-W-3,                   !- Name\n   *************    811   Window,                                 !- Surface Type\n   *************    812   ,                                       !- Construction Name\n   ** Severe  ** IP: IDF line~812 Error detected in Object=FENESTRATIONSURFACE:DETAILED, name=E-01_117-E-W-288-W-3\n   **   ~~~   ** Field [Construction Name] is required but was blank\n   ************* IDF Context for following error/warning message:\n   ************* Note -- lines truncated at 300 characters, if necessary...\n   *************    825 FenestrationSurface:Detailed,\n   ************* indicated Name=E-01_117-E-W-288-W-4\n   ************* Only last 3 lines before error line shown.....\n   *************    826   E-01_117-E-W-288-W-4,                   !- Name\n   *************    827   Window,                                 !- Surface Type\n   *************    828   ,                                       !- Construction Name\n   ** Severe  ** IP: IDF line~828 Error detected in Object=FENESTRATIONSURFACE:DETAILED, name=E-01_117-E-W-288-W-4\n   **   ~~~   ** Field [Construction Name] is required but was blank\n   ************* IDF Context for following error/warning message:\n   ************* Note -- lines truncated at 300 characters, if necessary...\n   *************    841 BuildingSurface:Detailed,\n   ************* indicated Name=E-02_114-E-W-405\n   ************* Only last 3 lines before error line shown.....\n   *************    842   E-02_114-E-W-405,                       !- Name\n   *************    843   Wall,                                   !- Surface Type\n   *************    844   ,                                       !- Construction Name\n   ** Severe  ** IP: IDF line~844 Error detected in Object=BUILDINGSURFACE:DETAILED, name=E-02_114-E-W-405\n   **   ~~~   ** Field [Construction Name] is required but was blank\n   ************* IDF Context for following error/warning message:\n   ************* Note -- lines truncated at 300 characters, if necessary...\n   *************    857 FenestrationSurface:Detailed,\n   ************* indicated Name=E-02_114-E-W-405-W-1\n   ************* Only last 3 lines before error line shown.....\n   *************    858   E-02_114-E-W-405-W-1,                   !- Name\n   *************    859   Window,                                 !- Surface Type\n   *************    860   ,                                       !- Construction Name\n   ** Severe  ** IP: IDF line~860 Error detected in Object=FENESTRATIONSURFACE:DETAILED, name=E-02_114-E-W-405-W-1\n   **   ~~~   ** Field [Construction Name] is required but was blank\n   ************* IDF Context for following error/warning message:\n   ************* Note -- lines truncated at 300 characters, if necessary...\n   *************    873 FenestrationSurface:Detailed,\n   ************* indicated Name=E-02_114-E-W-405-W-2\n   ************* Only last 3 lines before error line shown.....\n   *************    874   E-02_114-E-W-405-W-2,                   !- Name\n   *************    875   Window,                                 !- Surface Type\n   *************    876   ,                                       !- Construction Name\n   ** Severe  ** IP: IDF line~876 Error detected in Object=FENESTRATIONSURFACE:DETAILED, name=E-02_114-E-W-405-W-2\n   **   ~~~   ** Field [Construction Name] is required but was blank\n   ************* IDF Context for following error/warning message:\n   ************* Note -- lines truncated at 300 characters, if necessary...\n   *************    889 FenestrationSurface:Detailed,\n   ************* indicated Name=E-02_114-E-W-405-W-3\n   ************* Only last 3 lines before error line shown.....\n   *************    890   E-02_114-E-W-405-W-3,                   !- Name\n   *************    891   Window,                                 !- Surface Type\n   *************    892   ,                                       !- Construction Name\n   ** Severe  ** IP: IDF line~892 Error detected in Object=FENESTRATIONSURFACE:DETAILED, name=E-02_114-E-W-405-W-3\n   **   ~~~   ** Field [Construction Name] is required but was blank\n   ************* IDF Context for following error/warning message:\n   ************* Note -- lines truncated at 300 characters, if necessary...\n   *************    905 FenestrationSurface:Detailed,\n   ************* indicated Name=E-02_114-E-W-405-W-4\n   ************* Only last 3 lines before error line shown.....\n   *************    906   E-02_114-E-W-405-W-4,                   !- Name\n   *************    907   Window,                                 !- Surface Type\n   *************    908   ,                                       !- Construction Name\n   ** Severe  ** IP: IDF line~908 Error detected in Object=FENESTRATIONSURFACE:DETAILED, name=E-02_114-E-W-405-W-4\n   **   ~~~   ** Field [Construction Name] is required but was blank\n   ************* IDF Context for following error/warning message:\n   ************* Note -- lines truncated at 300 characters, if necessary...\n   *************    921 BuildingSurface:Detailed,\n   ************* indicated Name=E-02_115-E-W-411\n   ************* Only last 3 lines before error line shown.....\n   *************    922   E-02_115-E-W-411,                       !- Name\n   *************    923   Wall,                                   !- Surface Type\n   *************    924   ,                                       !- Construction Name\n   ** Severe  ** IP: IDF line~924 Error detected in Object=BUILDINGSURFACE:DETAILED, name=E-02_115-E-W-411\n   **   ~~~   ** Field [Construction Name] is required but was blank\n   ************* IDF Context for following error/warning message:\n   ************* Note -- lines truncated at 300 characters, if necessary...\n   *************    937 FenestrationSurface:Detailed,\n   ************* indicated Name=E-02_115-E-W-411-W-1\n   ************* Only last 3 lines before error line shown.....\n   *************    938   E-02_115-E-W-411-W-1,                   !- Name\n   *************    939   Window,                                 !- Surface Type\n   *************    940   ,                                       !- Construction Name\n   ** Severe  ** IP: IDF line~940 Error detected in Object=FENESTRATIONSURFACE:DETAILED, name=E-02_115-E-W-411-W-1\n   **   ~~~   ** Field [Construction Name] is required but was blank\n   ************* IDF Context for following error/warning message:\n   ************* Note -- lines truncated at 300 characters, if necessary...\n   *************    953 FenestrationSurface:Detailed,\n   ************* indicated Name=E-02_115-E-W-411-W-2\n   ************* Only last 3 lines before error line shown.....\n   *************    954   E-02_115-E-W-411-W-2,                   !- Name\n   *************    955   Window,                                 !- Surface Type\n   *************    956   ,                                       !- Construction Name\n   ** Severe  ** IP: IDF line~956 Error detected in Object=FENESTRATIONSURFACE:DETAILED, name=E-02_115-E-W-411-W-2\n   **   ~~~   ** Field [Construction Name] is required but was blank\n   ************* IDF Context for following error/warning message:\n   ************* Note -- lines truncated at 300 characters, if necessary...\n   *************    969 FenestrationSurface:Detailed,\n   ************* indicated Name=E-02_115-E-W-411-W-3\n   ************* Only last 3 lines before error line shown.....\n   *************    970   E-02_115-E-W-411-W-3,                   !- Name\n   *************    971   Window,                                 !- Surface Type\n   *************    972   ,                                       !- Construction Name\n   ** Severe  ** IP: IDF line~972 Error detected in Object=FENESTRATIONSURFACE:DETAILED, name=E-02_115-E-W-411-W-3\n   **   ~~~   ** Field [Construction Name] is required but was blank\n   ************* IDF Context for following error/warning message:\n   ************* Note -- lines truncated at 300 characters, if necessary...\n   *************    985 FenestrationSurface:Detailed,\n   ************* indicated Name=E-02_115-E-W-411-W-4\n   ************* Only last 3 lines before error line shown.....\n   *************    986   E-02_115-E-W-411-W-4,                   !- Name\n   *************    987   Window,                                 !- Surface Type\n   *************    988   ,                                       !- Construction Name\n   ** Severe  ** IP: IDF line~988 Error detected in Object=FENESTRATIONSURFACE:DETAILED, name=E-02_115-E-W-411-W-4\n   **   ~~~   ** Field [Construction Name] is required but was blank\n   ************* IDF Context for following error/warning message:\n   ************* Note -- lines truncated at 300 characters, if necessary...\n   *************   1001 FenestrationSurface:Detailed,\n   ************* indicated Name=E-02_115-E-W-411-W-5\n   ************* Only last 3 lines before error line shown.....\n   *************   1002   E-02_115-E-W-411-W-5,                   !- Name\n   *************   1003   Window,                                 !- Surface Type\n   *************   1004   ,                                       !- Construction Name\n   ** Severe  ** IP: IDF line~1004 Error detected in Object=FENESTRATIONSURFACE:DETAILED, name=E-02_115-E-W-411-W-5\n   **   ~~~   ** Field [Construction Name] is required but was blank\n   ************* IDF Context for following error/warning message:\n   ************* Note -- lines truncated at 300 characters, if necessary...\n   *************   1017 FenestrationSurface:Detailed,\n   ************* indicated Name=E-02_115-E-W-411-W-6\n   ************* Only last 3 lines before error line shown.....\n   *************   1018   E-02_115-E-W-411-W-6,                   !- Name\n   *************   1019   Window,                                 !- Surface Type\n   *************   1020   ,                                       !- Construction Name\n   ** Severe  ** IP: IDF line~1020 Error detected in Object=FENESTRATIONSURFACE:DETAILED, name=E-02_115-E-W-411-W-6\n   **   ~~~   ** Field [Construction Name] is required but was blank\n   ************* IDF Context for following error/warning message:\n   ************* Note -- lines truncated at 300 characters, if necessary...\n   *************   1033 BuildingSurface:Detailed,\n   ************* indicated Name=E-B1_104-E-W-445\n   ************* Only last 3 lines before error line shown.....\n   *************   1034   E-B1_104-E-W-445,                       !- Name\n   *************   1035   Wall,                                   !- Surface Type\n   *************   1036   ,                                       !- Construction Name\n   ** Severe  ** IP: IDF line~1036 Error detected in Object=BUILDINGSURFACE:DETAILED, name=E-B1_104-E-W-445\n   **   ~~~   ** Field [Construction Name] is required but was blank\n   ************* IDF Context for following error/warning message:\n   ************* Note -- lines truncated at 300 characters, if necessary...\n   *************   1049 BuildingSurface:Detailed,\n   ************* indicated Name=E-B1_105-E-W-459\n   ************* Only last 3 lines before error line shown.....\n   *************   1050   E-B1_105-E-W-459,                       !- Name\n   *************   1051   Wall,                                   !- Surface Type\n   *************   1052   ,                                       !- Construction Name\n   ** Severe  ** IP: IDF line~1052 Error detected in Object=BUILDINGSURFACE:DETAILED, name=E-B1_105-E-W-459\n   **   ~~~   ** Field [Construction Name] is required but was blank\n   ************* IDF Context for following error/warning message:\n   ************* Note -- lines truncated at 300 characters, if necessary...\n   *************   1065 BuildingSurface:Detailed,\n   ************* indicated Name=E-B1_106-E-W-462\n   ************* Only last 3 lines before error line shown.....\n   *************   1066   E-B1_106-E-W-462,                       !- Name\n   *************   1067   Wall,                                   !- Surface Type\n   *************   1068   ,                                       !- Construction Name\n   ** Severe  ** IP: IDF line~1068 Error detected in Object=BUILDINGSURFACE:DETAILED, name=E-B1_106-E-W-462\n   **   ~~~   ** Field [Construction Name] is required but was blank\n   ************* IDF Context for following error/warning message:\n   ************* Note -- lines truncated at 300 characters, if necessary...\n   *************   1081 BuildingSurface:Detailed,\n   ************* indicated Name=E-RF_100-E-W-482\n   ************* Only last 3 lines before error line shown.....\n   *************   1082   E-RF_100-E-W-482,                       !- Name\n   *************   1083   Wall,                                   !- Surface Type\n   *************   1084   ,                                       !- Construction Name\n   ** Severe  ** IP: IDF line~1084 Error detected in Object=BUILDINGSURFACE:DETAILED, name=E-RF_100-E-W-482\n   **   ~~~   ** Field [Construction Name] is required but was blank\n   ************* IDF Context for following error/warning message:\n   ************* Note -- lines truncated at 300 characters, if necessary...\n   *************   1097 BuildingSurface:Detailed,\n   ************* indicated Name=N-00_101-E-W-7\n   ************* Only last 3 lines before error line shown.....\n   *************   1098   N-00_101-E-W-7,                         !- Name\n   *************   1099   Wall,                                   !- Surface Type\n   *************   1100   ,                                       !- Construction Name\n   ** Severe  ** IP: IDF line~1100 Error detected in Object=BUILDINGSURFACE:DETAILED, name=N-00_101-E-W-7\n   **   ~~~   ** Field [Construction Name] is required but was blank\n   ************* IDF Context for following error/warning message:\n   ************* Note -- lines truncated at 300 characters, if necessary...\n   *************   1113 FenestrationSurface:Detailed,\n   ************* indicated Name=N-00_101-E-W-7-D-1\n   ************* Only last 3 lines before error line shown.....\n   *************   1114   N-00_101-E-W-7-D-1,                     !- Name\n   *************   1115   GlassDoor,                              !- Surface Type\n   *************   1116   ,                                       !- Construction Name\n   ** Severe  ** IP: IDF line~1116 Error detected in Object=FENESTRATIONSURFACE:DETAILED, name=N-00_101-E-W-7-D-1\n   **   ~~~   ** Field [Construction Name] is required but was blank\n   ************* IDF Context for following error/warning message:\n   ************* Note -- lines truncated at 300 characters, if necessary...\n   *************   1129 BuildingSurface:Detailed,\n   ************* indicated Name=N-00_102-E-W-16\n   ************* Only last 3 lines before error line shown.....\n   *************   1130   N-00_102-E-W-16,                        !- Name\n   *************   1131   Wall,                                   !- Surface Type\n   *************   1132   ,                                       !- Construction Name\n   ** Severe  ** IP: IDF line~1132 Error detected in Object=BUILDINGSURFACE:DETAILED, name=N-00_102-E-W-16\n   **   ~~~   ** Field [Construction Name] is required but was blank\n   ************* IDF Context for following error/warning message:\n   ************* Note -- lines truncated at 300 characters, if necessary...\n   *************   1145 BuildingSurface:Detailed,\n   ************* indicated Name=N-00_103-E-W-22\n   ************* Only last 3 lines before error line shown.....\n   *************   1146   N-00_103-E-W-22,                        !- Name\n   *************   1147   Wall,                                   !- Surface Type\n   *************   1148   ,                                       !- Construction Name\n   ** Severe  ** IP: IDF line~1148 Error detected in Object=BUILDINGSURFACE:DETAILED, name=N-00_103-E-W-22\n   **   ~~~   ** Field [Construction Name] is required but was blank\n   ************* IDF Context for following error/warning message:\n   ************* Note -- lines truncated at 300 characters, if necessary...\n   *************   1161 FenestrationSurface:Detailed,\n   ************* indicated Name=N-00_103-E-W-22-D-1\n   ************* Only last 3 lines before error line shown.....\n   *************   1162   N-00_103-E-W-22-D-1,                    !- Name\n   *************   1163   GlassDoor,                              !- Surface Type\n   *************   1164   ,                                       !- Construction Name\n   ** Severe  ** IP: IDF line~1164 Error detected in Object=FENESTRATIONSURFACE:DETAILED, name=N-00_103-E-W-22-D-1\n   **   ~~~   ** Field [Construction Name] is required but was blank\n   ************* IDF Context for following error/warning message:\n   ************* Note -- lines truncated at 300 characters, if necessary...\n   *************   1177 FenestrationSurface:Detailed,\n   ************* indicated Name=N-00_103-E-W-22-D-2\n   ************* Only last 3 lines before error line shown.....\n   *************   1178   N-00_103-E-W-22-D-2,                    !- Name\n   *************   1179   GlassDoor,                              !- Surface Type\n   *************   1180   ,                                       !- Construction Name\n   ** Severe  ** IP: IDF line~1180 Error detected in Object=FENESTRATIONSURFACE:DETAILED, name=N-00_103-E-W-22-D-2\n   **   ~~~   ** Field [Construction Name] is required but was blank\n   ************* IDF Context for following error/warning message:\n   ************* Note -- lines truncated at 300 characters, if necessary...\n   *************   1193 BuildingSurface:Detailed,\n   ************* indicated Name=N-00_106-E-W-35\n   ************* Only last 3 lines before error line shown.....\n   *************   1194   N-00_106-E-W-35,                        !- Name\n   *************   1195   Wall,                                   !- Surface Type\n   *************   1196   ,                                       !- Construction Name\n   ** Severe  ** IP: IDF line~1196 Error detected in Object=BUILDINGSURFACE:DETAILED, name=N-00_106-E-W-35\n   **   ~~~   ** Field [Construction Name] is required but was blank\n   ************* IDF Context for following error/warning message:\n   ************* Note -- lines truncated at 300 characters, if necessary...\n   *************   1209 BuildingSurface:Detailed,\n   ************* indicated Name=N-00_109-E-W-52\n   ************* Only last 3 lines before error line shown.....\n   *************   1210   N-00_109-E-W-52,                        !- Name\n   *************   1211   Wall,                                   !- Surface Type\n   *************   1212   ,                                       !- Construction Name\n   ** Severe  ** IP: IDF line~1212 Error detected in Object=BUILDINGSURFACE:DETAILED, name=N-00_109-E-W-52\n   **   ~~~   ** Field [Construction Name] is required but was blank\n   ************* IDF Context for following error/warning message:\n   ************* Note -- lines truncated at 300 characters, if necessary...\n   *************   1225 FenestrationSurface:Detailed,\n   ************* indicated Name=N-00_109-E-W-52-D-1\n   ************* Only last 3 lines before error line shown.....\n   *************   1226   N-00_109-E-W-52-D-1,                    !- Name\n   *************   1227   GlassDoor,                              !- Surface Type\n   *************   1228   ,                                       !- Construction Name\n   ** Severe  ** IP: IDF line~1228 Error detected in Object=FENESTRATIONSURFACE:DETAILED, name=N-00_109-E-W-52-D-1\n   **   ~~~   ** Field [Construction Name] is required but was blank\n   ************* IDF Context for following error/warning message:\n   ************* Note -- lines truncated at 300 characters, if necessary...\n   *************   1241 FenestrationSurface:Detailed,\n   ************* indicated Name=N-00_109-E-W-52-W-2\n   ************* Only last 3 lines before error line shown.....\n   *************   1242   N-00_109-E-W-52-W-2,                    !- Name\n   *************   1243   Window,                                 !- Surface Type\n   *************   1244   ,                                       !- Construction Name\n   ** Severe  ** IP: IDF line~1244 Error detected in Object=FENESTRATIONSURFACE:DETAILED, name=N-00_109-E-W-52-W-2\n   **   ~~~   ** Field [Construction Name] is required but was blank\n   ************* IDF Context for following error/warning message:\n   ************* Note -- lines truncated at 300 characters, if necessary...\n   *************   1257 BuildingSurface:Detailed,\n   ************* indicated Name=N-00_110-E-W-57\n   ************* Only last 3 lines before error line shown.....\n   *************   1258   N-00_110-E-W-57,                        !- Name\n   *************   1259   Wall,                                   !- Surface Type\n   *************   1260   ,                                       !- Construction Name\n   ** Severe  ** IP: IDF line~1260 Error detected in Object=BUILDINGSURFACE:DETAILED, name=N-00_110-E-W-57\n   **   ~~~   ** Field [Construction Name] is required but was blank\n   ************* IDF Context for following error/warning message:\n   ************* Note -- lines truncated at 300 characters, if necessary...\n   *************   1273 FenestrationSurface:Detailed,\n   ************* indicated Name=N-00_110-E-W-57-D-1\n   ************* Only last 3 lines before error line shown.....\n   *************   1274   N-00_110-E-W-57-D-1,                    !- Name\n   *************   1275   GlassDoor,                              !- Surface Type\n   *************   1276   ,                                       !- Construction Name\n   ** Severe  ** IP: IDF line~1276 Error detected in Object=FENESTRATIONSURFACE:DETAILED, name=N-00_110-E-W-57-D-1\n   **   ~~~   ** Field [Construction Name] is required but was blank\n   ************* IDF Context for following error/warning message:\n   ************* Note -- lines truncated at 300 characters, if necessary...\n   *************   1289 FenestrationSurface:Detailed,\n   ************* indicated Name=N-00_110-E-W-57-W-2\n   ************* Only last 3 lines before error line shown.....\n   *************   1290   N-00_110-E-W-57-W-2,                    !- Name\n   *************   1291   Window,                                 !- Surface Type\n   *************   1292   ,                                       !- Construction Name\n   ** Severe  ** IP: IDF line~1292 Error detected in Object=FENESTRATIONSURFACE:DETAILED, name=N-00_110-E-W-57-W-2\n   **   ~~~   ** Field [Construction Name] is required but was blank\n   ************* IDF Context for following error/warning message:\n   ************* Note -- lines truncated at 300 characters, if necessary...\n   *************   1305 BuildingSurface:Detailed,\n   ************* indicated Name=N-00_112-E-W-69\n   ************* Only last 3 lines before error line shown.....\n   *************   1306   N-00_112-E-W-69,                        !- Name\n   *************   1307   Wall,                                   !- Surface Type\n   *************   1308   ,                                       !- Construction Name\n   ** Severe  ** IP: IDF line~1308 Error detected in Object=BUILDINGSURFACE:DETAILED, name=N-00_112-E-W-69\n   **   ~~~   ** Field [Construction Name] is required but was blank\n   ************* IDF Context for following error/warning message:\n   ************* Note -- lines truncated at 300 characters, if necessary...\n   *************   1321 FenestrationSurface:Detailed,\n   ************* indicated Name=N-00_112-E-W-69-D-1\n   ************* Only last 3 lines before error line shown.....\n   *************   1322   N-00_112-E-W-69-D-1,                    !- Name\n   *************   1323   GlassDoor,                              !- Surface Type\n   *************   1324   ,                                       !- Construction Name\n   ** Severe  ** IP: IDF line~1324 Error detected in Object=FENESTRATIONSURFACE:DETAILED, name=N-00_112-E-W-69-D-1\n   **   ~~~   ** Field [Construction Name] is required but was blank\n   ************* IDF Context for following error/warning message:\n   ************* Note -- lines truncated at 300 characters, if necessary...\n   *************   1337 FenestrationSurface:Detailed,\n   ************* indicated Name=N-00_112-E-W-69-W-2\n   ************* Only last 3 lines before error line shown.....\n   *************   1338   N-00_112-E-W-69-W-2,                    !- Name\n   *************   1339   Window,                                 !- Surface Type\n   *************   1340   ,                                       !- Construction Name\n   ** Severe  ** IP: IDF line~1340 Error detected in Object=FENESTRATIONSURFACE:DETAILED, name=N-00_112-E-W-69-W-2\n   **   ~~~   ** Field [Construction Name] is required but was blank\n   ************* IDF Context for following error/warning message:\n   ************* Note -- lines truncated at 300 characters, if necessary...\n   *************   1353 BuildingSurface:Detailed,\n   ************* indicated Name=N-00_113-E-W-74\n   ************* Only last 3 lines before error line shown.....\n   *************   1354   N-00_113-E-W-74,                        !- Name\n   *************   1355   Wall,                                   !- Surface Type\n   *************   1356   ,                                       !- Construction Name\n   ** Severe  ** IP: IDF line~1356 Error detected in Object=BUILDINGSURFACE:DETAILED, name=N-00_113-E-W-74\n   **   ~~~   ** Field [Construction Name] is required but was blank\n   ************* IDF Context for following error/warning message:\n   ************* Note -- lines truncated at 300 characters, if necessary...\n   *************   1369 FenestrationSurface:Detailed,\n   ************* indicated Name=N-00_113-E-W-74-D-1\n   ************* Only last 3 lines before error line shown.....\n   *************   1370   N-00_113-E-W-74-D-1,                    !- Name\n   *************   1371   GlassDoor,                              !- Surface Type\n   *************   1372   ,                                       !- Construction Name\n   ** Severe  ** IP: IDF line~1372 Error detected in Object=FENESTRATIONSURFACE:DETAILED, name=N-00_113-E-W-74-D-1\n   **   ~~~   ** Field [Construction Name] is required but was blank\n   ************* IDF Context for following error/warning message:\n   ************* Note -- lines truncated at 300 characters, if necessary...\n   *************   1385 FenestrationSurface:Detailed,\n   ************* indicated Name=N-00_113-E-W-74-W-2\n   ************* Only last 3 lines before error line shown.....\n   *************   1386   N-00_113-E-W-74-W-2,                    !- Name\n   *************   1387   Window,                                 !- Surface Type\n   *************   1388   ,                                       !- Construction Name\n   ** Severe  ** IP: IDF line~1388 Error detected in Object=FENESTRATIONSURFACE:DETAILED, name=N-00_113-E-W-74-W-2\n   **   ~~~   ** Field [Construction Name] is required but was blank\n   ************* IDF Context for following error/warning message:\n   ************* Note -- lines truncated at 300 characters, if necessary...\n   *************   1401 FenestrationSurface:Detailed,\n   ************* indicated Name=N-00_113-E-W-74-W-3\n   ************* Only last 3 lines before error line shown.....\n   *************   1402   N-00_113-E-W-74-W-3,                    !- Name\n   *************   1403   Window,                                 !- Surface Type\n   *************   1404   ,                                       !- Construction Name\n   ** Severe  ** IP: IDF line~1404 Error detected in Object=FENESTRATIONSURFACE:DETAILED, name=N-00_113-E-W-74-W-3\n   **   ~~~   ** Field [Construction Name] is required but was blank\n   ************* IDF Context for following error/warning message:\n   ************* Note -- lines truncated at 300 characters, if necessary...\n   *************   1417 BuildingSurface:Detailed,\n   ************* indicated Name=N-00_128-E-W-182\n   ************* Only last 3 lines before error line shown.....\n   *************   1418   N-00_128-E-W-182,                       !- Name\n   *************   1419   Wall,                                   !- Surface Type\n   *************   1420   ,                                       !- Construction Name\n   ** Severe  ** IP: IDF line~1420 Error detected in Object=BUILDINGSURFACE:DETAILED, name=N-00_128-E-W-182\n   **   ~~~   ** Field [Construction Name] is required but was blank\n   ************* IDF Context for following error/warning message:\n   ************* Note -- lines truncated at 300 characters, if necessary...\n   *************   1433 FenestrationSurface:Detailed,\n   ************* indicated Name=N-00_128-E-W-182-W-1\n   ************* Only last 3 lines before error line shown.....\n   *************   1434   N-00_128-E-W-182-W-1,                   !- Name\n   *************   1435   Window,                                 !- Surface Type\n   *************   1436   ,                                       !- Construction Name\n   ** Severe  ** IP: IDF line~1436 Error detected in Object=FENESTRATIONSURFACE:DETAILED, name=N-00_128-E-W-182-W-1\n   **   ~~~   ** Field [Construction Name] is required but was blank\n   ************* IDF Context for following error/warning message:\n   ************* Note -- lines truncated at 300 characters, if necessary...\n   *************   1449 BuildingSurface:Detailed,\n   ************* indicated Name=N-01_110-E-W-260\n   ************* Only last 3 lines before error line shown.....\n   *************   1450   N-01_110-E-W-260,                       !- Name\n   *************   1451   Wall,                                   !- Surface Type\n   *************   1452   ,                                       !- Construction Name\n   ** Severe  ** IP: IDF line~1452 Error detected in Object=BUILDINGSURFACE:DETAILED, name=N-01_110-E-W-260\n   **   ~~~   ** Field [Construction Name] is required but was blank\n   ************* IDF Context for following error/warning message:\n   ************* Note -- lines truncated at 300 characters, if necessary...\n   *************   1465 BuildingSurface:Detailed,\n   ************* indicated Name=N-01_111-E-W-264\n   ************* Only last 3 lines before error line shown.....\n   *************   1466   N-01_111-E-W-264,                       !- Name\n   *************   1467   Wall,                                   !- Surface Type\n   *************   1468   ,                                       !- Construction Name\n   ** Severe  ** IP: IDF line~1468 Error detected in Object=BUILDINGSURFACE:DETAILED, name=N-01_111-E-W-264\n   **   ~~~   ** Field [Construction Name] is required but was blank\n   ************* IDF Context for following error/warning message:\n   ************* Note -- lines truncated at 300 characters, if necessary...\n   *************   1481 BuildingSurface:Detailed,\n   ************* indicated Name=N-01_112-E-W-267\n   ************* Only last 3 lines before error line shown.....\n   *************   1482   N-01_112-E-W-267,                       !- Name\n   *************   1483   Wall,                                   !- Surface Type\n   *************   1484   ,                                       !- Construction Name\n   ** Severe  ** IP: IDF line~1484 Error detected in Object=BUILDINGSURFACE:DETAILED, name=N-01_112-E-W-267\n   **   ~~~   ** Field [Construction Name] is required but was blank\n   ************* IDF Context for following error/warning message:\n   ************* Note -- lines truncated at 300 characters, if necessary...\n   *************   1497 BuildingSurface:Detailed,\n   ************* indicated Name=N-01_113-E-W-270\n   ************* Only last 3 lines before error line shown.....\n   *************   1498   N-01_113-E-W-270,                       !- Name\n   *************   1499   Wall,                                   !- Surface Type\n   *************   1500   ,                                       !- Construction Name\n   ** Severe  ** IP: IDF line~1500 Error detected in Object=BUILDINGSURFACE:DETAILED, name=N-01_113-E-W-270\n   **   ~~~   ** Field [Construction Name] is required but was blank\n   ************* IDF Context for following error/warning message:\n   ************* Note -- lines truncated at 300 characters, if necessary...\n   *************   1513 BuildingSurface:Detailed,\n   ************* indicated Name=N-01_114-E-W-273\n   ************* Only last 3 lines before error line shown.....\n   *************   1514   N-01_114-E-W-273,                       !- Name\n   *************   1515   Wall,                                   !- Surface Type\n   *************   1516   ,                                       !- Construction Name\n   ** Severe  ** IP: IDF line~1516 Error detected in Object=BUILDINGSURFACE:DETAILED, name=N-01_114-E-W-273\n   **   ~~~   ** Field [Construction Name] is required but was blank\n   ************* IDF Context for following error/warning message:\n   ************* Note -- lines truncated at 300 characters, if necessary...\n   *************   1529 BuildingSurface:Detailed,\n   ************* indicated Name=N-01_115-E-W-276\n   ************* Only last 3 lines before error line shown.....\n   *************   1530   N-01_115-E-W-276,                       !- Name\n   *************   1531   Wall,                                   !- Surface Type\n   *************   1532   ,                                       !- Construction Name\n   ** Severe  ** IP: IDF line~1532 Error detected in Object=BUILDINGSURFACE:DETAILED, name=N-01_115-E-W-276\n   **   ~~~   ** Field [Construction Name] is required but was blank\n   ************* IDF Context for following error/warning message:\n   ************* Note -- lines truncated at 300 characters, if necessary...\n   *************   1545 FenestrationSurface:Detailed,\n   ************* indicated Name=N-01_115-E-W-276-W-1\n   ************* Only last 3 lines before error line shown.....\n   *************   1546   N-01_115-E-W-276-W-1,                   !- Name\n   *************   1547   Window,                                 !- Surface Type\n   *************   1548   ,                                       !- Construction Name\n   ** Severe  ** IP: IDF line~1548 Error detected in Object=FENESTRATIONSURFACE:DETAILED, name=N-01_115-E-W-276-W-1\n   **   ~~~   ** Field [Construction Name] is required but was blank\n   ************* IDF Context for following error/warning message:\n   ************* Note -- lines truncated at 300 characters, if necessary...\n   *************   1561 FenestrationSurface:Detailed,\n   ************* indicated Name=N-01_115-E-W-276-W-2\n   ************* Only last 3 lines before error line shown.....\n   *************   1562   N-01_115-E-W-276-W-2,                   !- Name\n   *************   1563   Window,                                 !- Surface Type\n   *************   1564   ,                                       !- Construction Name\n   ** Severe  ** IP: IDF line~1564 Error detected in Object=FENESTRATIONSURFACE:DETAILED, name=N-01_115-E-W-276-W-2\n   **   ~~~   ** Field [Construction Name] is required but was blank\n   ************* IDF Context for following error/warning message:\n   ************* Note -- lines truncated at 300 characters, if necessary...\n   *************   1577 FenestrationSurface:Detailed,\n   ************* indicated Name=N-01_115-E-W-276-W-3\n   ************* Only last 3 lines before error line shown.....\n   *************   1578   N-01_115-E-W-276-W-3,                   !- Name\n   *************   1579   Window,                                 !- Surface Type\n   *************   1580   ,                                       !- Construction Name\n   ** Severe  ** IP: IDF line~1580 Error detected in Object=FENESTRATIONSURFACE:DETAILED, name=N-01_115-E-W-276-W-3\n   **   ~~~   ** Field [Construction Name] is required but was blank\n   ************* IDF Context for following error/warning message:\n   ************* Note -- lines truncated at 300 characters, if necessary...\n   *************   1593 BuildingSurface:Detailed,\n   ************* indicated Name=N-01_116-E-W-283\n   ************* Only last 3 lines before error line shown.....\n   *************   1594   N-01_116-E-W-283,                       !- Name\n   *************   1595   Wall,                                   !- Surface Type\n   *************   1596   ,                                       !- Construction Name\n   ** Severe  ** IP: IDF line~1596 Error detected in Object=BUILDINGSURFACE:DETAILED, name=N-01_116-E-W-283\n   **   ~~~   ** Field [Construction Name] is required but was blank\n   ************* IDF Context for following error/warning message:\n   ************* Note -- lines truncated at 300 characters, if necessary...\n   *************   1609 FenestrationSurface:Detailed,\n   ************* indicated Name=N-01_116-E-W-283-W-1\n   ************* Only last 3 lines before error line shown.....\n   *************   1610   N-01_116-E-W-283-W-1,                   !- Name\n   *************   1611   Window,                                 !- Surface Type\n   *************   1612   ,                                       !- Construction Name\n   ** Severe  ** IP: IDF line~1612 Error detected in Object=FENESTRATIONSURFACE:DETAILED, name=N-01_116-E-W-283-W-1\n   **   ~~~   ** Field [Construction Name] is required but was blank\n   ************* IDF Context for following error/warning message:\n   ************* Note -- lines truncated at 300 characters, if necessary...\n   *************   1625 FenestrationSurface:Detailed,\n   ************* indicated Name=N-01_116-E-W-283-W-2\n   ************* Only last 3 lines before error line shown.....\n   *************   1626   N-01_116-E-W-283-W-2,                   !- Name\n   *************   1627   Window,                                 !- Surface Type\n   *************   1628   ,                                       !- Construction Name\n   ** Severe  ** IP: IDF line~1628 Error detected in Object=FENESTRATIONSURFACE:DETAILED, name=N-01_116-E-W-283-W-2\n   **   ~~~   ** Field [Construction Name] is required but was blank\n   ************* IDF Context for following error/warning message:\n   ************* Note -- lines truncated at 300 characters, if necessary...\n   *************   1641 FenestrationSurface:Detailed,\n   ************* indicated Name=N-01_116-E-W-283-W-3\n   ************* Only last 3 lines before error line shown.....\n   *************   1642   N-01_116-E-W-283-W-3,                   !- Name\n   *************   1643   Window,                                 !- Surface Type\n   *************   1644   ,                                       !- Construction Name\n   ** Severe  ** IP: IDF line~1644 Error detected in Object=FENESTRATIONSURFACE:DETAILED, name=N-01_116-E-W-283-W-3\n   **   ~~~   ** Field [Construction Name] is required but was blank\n   ************* IDF Context for following error/warning message:\n   ************* Note -- lines truncated at 300 characters, if necessary...\n   *************   1657 FenestrationSurface:Detailed,\n   ************* indicated Name=N-01_116-E-W-283-W-4\n   ************* Only last 3 lines before error line shown.....\n   *************   1658   N-01_116-E-W-283-W-4,                   !- Name\n   *************   1659   Window,                                 !- Surface Type\n   *************   1660   ,                                       !- Construction Name\n   ** Severe  ** IP: IDF line~1660 Error detected in Object=FENESTRATIONSURFACE:DETAILED, name=N-01_116-E-W-283-W-4\n   **   ~~~   ** Field [Construction Name] is required but was blank\n   ************* IDF Context for following error/warning message:\n   ************* Note -- lines truncated at 300 characters, if necessary...\n   *************   1673 BuildingSurface:Detailed,\n   ************* indicated Name=N-01_118-E-W-297\n   ************* Only last 3 lines before error line shown.....\n   *************   1674   N-01_118-E-W-297,                       !- Name\n   *************   1675   Wall,                                   !- Surface Type\n   *************   1676   ,                                       !- Construction Name\n   ** Severe  ** IP: IDF line~1676 Error detected in Object=BUILDINGSURFACE:DETAILED, name=N-01_118-E-W-297\n   **   ~~~   ** Field [Construction Name] is required but was blank\n   ************* IDF Context for following error/warning message:\n   ************* Note -- lines truncated at 300 characters, if necessary...\n   *************   1689 FenestrationSurface:Detailed,\n   ************* indicated Name=N-01_118-E-W-297-W-1\n   ************* Only last 3 lines before error line shown.....\n   *************   1690   N-01_118-E-W-297-W-1,                   !- Name\n   *************   1691   Window,                                 !- Surface Type\n   *************   1692   ,                                       !- Construction Name\n   ** Severe  ** IP: IDF line~1692 Error detected in Object=FENESTRATIONSURFACE:DETAILED, name=N-01_118-E-W-297-W-1\n   **   ~~~   ** Field [Construction Name] is required but was blank\n   ************* IDF Context for following error/warning message:\n   ************* Note -- lines truncated at 300 characters, if necessary...\n   *************   1705 FenestrationSurface:Detailed,\n   ************* indicated Name=N-01_118-E-W-297-W-2\n   ************* Only last 3 lines before error line shown.....\n   *************   1706   N-01_118-E-W-297-W-2,                   !- Name\n   *************   1707   Window,                                 !- Surface Type\n   *************   1708   ,                                       !- Construction Name\n   ** Severe  ** IP: IDF line~1708 Error detected in Object=FENESTRATIONSURFACE:DETAILED, name=N-01_118-E-W-297-W-2\n   **   ~~~   ** Field [Construction Name] is required but was blank\n   ************* IDF Context for following error/warning message:\n   ************* Note -- lines truncated at 300 characters, if necessary...\n   *************   1721 FenestrationSurface:Detailed,\n   ************* indicated Name=N-01_118-E-W-297-W-3\n   ************* Only last 3 lines before error line shown.....\n   *************   1722   N-01_118-E-W-297-W-3,                   !- Name\n   *************   1723   Window,                                 !- Surface Type\n   *************   1724   ,                                       !- Construction Name\n   ** Severe  ** IP: IDF line~1724 Error detected in Object=FENESTRATIONSURFACE:DETAILED, name=N-01_118-E-W-297-W-3\n   **   ~~~   ** Field [Construction Name] is required but was blank\n   ************* IDF Context for following error/warning message:\n   ************* Note -- lines truncated at 300 characters, if necessary...\n   *************   1737 BuildingSurface:Detailed,\n   ************* indicated Name=N-02_103-E-W-343\n   ************* Only last 3 lines before error line shown.....\n   *************   1738   N-02_103-E-W-343,                       !- Name\n   *************   1739   Wall,                                   !- Surface Type\n   *************   1740   ,                                       !- Construction Name\n   ** Severe  ** IP: IDF line~1740 Error detected in Object=BUILDINGSURFACE:DETAILED, name=N-02_103-E-W-343\n   **   ~~~   ** Field [Construction Name] is required but was blank\n   ************* IDF Context for following error/warning message:\n   ************* Note -- lines truncated at 300 characters, if necessary...\n   *************   1753 BuildingSurface:Detailed,\n   ************* indicated Name=N-02_106-E-W-359\n   ************* Only last 3 lines before error line shown.....\n   *************   1754   N-02_106-E-W-359,                       !- Name\n   *************   1755   Wall,                                   !- Surface Type\n   *************   1756   ,                                       !- Construction Name\n   ** Severe  ** IP: IDF line~1756 Error detected in Object=BUILDINGSURFACE:DETAILED, name=N-02_106-E-W-359\n   **   ~~~   ** Field [Construction Name] is required but was blank\n   ************* IDF Context for following error/warning message:\n   ************* Note -- lines truncated at 300 characters, if necessary...\n   *************   1769 FenestrationSurface:Detailed,\n   ************* indicated Name=N-02_106-E-W-359-W-1\n   ************* Only last 3 lines before error line shown.....\n   *************   1770   N-02_106-E-W-359-W-1,                   !- Name\n   *************   1771   Window,                                 !- Surface Type\n   *************   1772   ,                                       !- Construction Name\n   ** Severe  ** IP: IDF line~1772 Error detected in Object=FENESTRATIONSURFACE:DETAILED, name=N-02_106-E-W-359-W-1\n   **   ~~~   ** Field [Construction Name] is required but was blank\n   ************* IDF Context for following error/warning message:\n   ************* Note -- lines truncated at 300 characters, if necessary...\n   *************   1785 FenestrationSurface:Detailed,\n   ************* indicated Name=N-02_106-E-W-359-W-2\n   ************* Only last 3 lines before error line shown.....\n   *************   1786   N-02_106-E-W-359-W-2,                   !- Name\n   *************   1787   Window,                                 !- Surface Type\n   *************   1788   ,                                       !- Construction Name\n   ** Severe  ** IP: IDF line~1788 Error detected in Object=FENESTRATIONSURFACE:DETAILED, name=N-02_106-E-W-359-W-2\n   **   ~~~   ** Field [Construction Name] is required but was blank\n   ************* IDF Context for following error/warning message:\n   ************* Note -- lines truncated at 300 characters, if necessary...\n   *************   1801 FenestrationSurface:Detailed,\n   ************* indicated Name=N-02_106-E-W-359-W-3\n   ************* Only last 3 lines before error line shown.....\n   *************   1802   N-02_106-E-W-359-W-3,                   !- Name\n   *************   1803   Window,                                 !- Surface Type\n   *************   1804   ,                                       !- Construction Name\n   ** Severe  ** IP: IDF line~1804 Error detected in Object=FENESTRATIONSURFACE:DETAILED, name=N-02_106-E-W-359-W-3\n   **   ~~~   ** Field [Construction Name] is required but was blank\n   ************* IDF Context for following error/warning message:\n   ************* Note -- lines truncated at 300 characters, if necessary...\n   *************   1817 BuildingSurface:Detailed,\n   ************* indicated Name=N-02_107-E-W-365\n   ************* Only last 3 lines before error line shown.....\n   *************   1818   N-02_107-E-W-365,                       !- Name\n   *************   1819   Wall,                                   !- Surface Type\n   *************   1820   ,                                       !- Construction Name\n   ** Severe  ** IP: IDF line~1820 Error detected in Object=BUILDINGSURFACE:DETAILED, name=N-02_107-E-W-365\n   **   ~~~   ** Field [Construction Name] is required but was blank\n   ************* IDF Context for following error/warning message:\n   ************* Note -- lines truncated at 300 characters, if necessary...\n   *************   1833 FenestrationSurface:Detailed,\n   ************* indicated Name=N-02_107-E-W-365-W-1\n   ************* Only last 3 lines before error line shown.....\n   *************   1834   N-02_107-E-W-365-W-1,                   !- Name\n   *************   1835   Window,                                 !- Surface Type\n   *************   1836   ,                                       !- Construction Name\n   ** Severe  ** IP: IDF line~1836 Error detected in Object=FENESTRATIONSURFACE:DETAILED, name=N-02_107-E-W-365-W-1\n   **   ~~~   ** Field [Construction Name] is required but was blank\n   ************* IDF Context for following error/warning message:\n   ************* Note -- lines truncated at 300 characters, if necessary...\n   *************   1849 FenestrationSurface:Detailed,\n   ************* indicated Name=N-02_107-E-W-365-W-2\n   ************* Only last 3 lines before error line shown.....\n   *************   1850   N-02_107-E-W-365-W-2,                   !- Name\n   *************   1851   Window,                                 !- Surface Type\n   *************   1852   ,                                       !- Construction Name\n   ** Severe  ** IP: IDF line~1852 Error detected in Object=FENESTRATIONSURFACE:DETAILED, name=N-02_107-E-W-365-W-2\n   **   ~~~   ** Field [Construction Name] is required but was blank\n   ************* IDF Context for following error/warning message:\n   ************* Note -- lines truncated at 300 characters, if necessary...\n   *************   1865 FenestrationSurface:Detailed,\n   ************* indicated Name=N-02_107-E-W-365-W-3\n   ************* Only last 3 lines before error line shown.....\n   *************   1866   N-02_107-E-W-365-W-3,                   !- Name\n   *************   1867   Window,                                 !- Surface Type\n   *************   1868   ,                                       !- Construction Name\n   ** Severe  ** IP: IDF line~1868 Error detected in Object=FENESTRATIONSURFACE:DETAILED, name=N-02_107-E-W-365-W-3\n   **   ~~~   ** Field [Construction Name] is required but was blank\n   ************* IDF Context for following error/warning message:\n   ************* Note -- lines truncated at 300 characters, if necessary...\n   *************   1881 BuildingSurface:Detailed,\n   ************* indicated Name=N-02_110-E-W-380\n   ************* Only last 3 lines before error line shown.....\n   *************   1882   N-02_110-E-W-380,                       !- Name\n   *************   1883   Wall,                                   !- Surface Type\n   *************   1884   ,                                       !- Construction Name\n   ** Severe  ** IP: IDF line~1884 Error detected in Object=BUILDINGSURFACE:DETAILED, name=N-02_110-E-W-380\n   **   ~~~   ** Field [Construction Name] is required but was blank\n   ************* IDF Context for following error/warning message:\n   ************* Note -- lines truncated at 300 characters, if necessary...\n   *************   1897 BuildingSurface:Detailed,\n   ************* indicated Name=N-02_111-E-W-384\n   ************* Only last 3 lines before error line shown.....\n   *************   1898   N-02_111-E-W-384,                       !- Name\n   *************   1899   Wall,                                   !- Surface Type\n   *************   1900   ,                                       !- Construction Name\n   ** Severe  ** IP: IDF line~1900 Error detected in Object=BUILDINGSURFACE:DETAILED, name=N-02_111-E-W-384\n   **   ~~~   ** Field [Construction Name] is required but was blank\n   ************* IDF Context for following error/warning message:\n   ************* Note -- lines truncated at 300 characters, if necessary...\n   *************   1913 BuildingSurface:Detailed,\n   ************* indicated Name=N-02_114-E-W-404\n   ************* Only last 3 lines before error line shown.....\n   *************   1914   N-02_114-E-W-404,                       !- Name\n   *************   1915   Wall,                                   !- Surface Type\n   *************   1916   ,                                       !- Construction Name\n   ** Severe  ** IP: IDF line~1916 Error detected in Object=BUILDINGSURFACE:DETAILED, name=N-02_114-E-W-404\n   **   ~~~   ** Field [Construction Name] is required but was blank\n   ************* IDF Context for following error/warning message:\n   ************* Note -- lines truncated at 300 characters, if necessary...\n   *************   1929 FenestrationSurface:Detailed,\n   ************* indicated Name=N-02_114-E-W-404-W-1\n   ************* Only last 3 lines before error line shown.....\n   *************   1930   N-02_114-E-W-404-W-1,                   !- Name\n   *************   1931   Window,                                 !- Surface Type\n   *************   1932   ,                                       !- Construction Name\n   ** Severe  ** IP: IDF line~1932 Error detected in Object=FENESTRATIONSURFACE:DETAILED, name=N-02_114-E-W-404-W-1\n   **   ~~~   ** Field [Construction Name] is required but was blank\n   ************* IDF Context for following error/warning message:\n   ************* Note -- lines truncated at 300 characters, if necessary...\n   *************   1945 FenestrationSurface:Detailed,\n   ************* indicated Name=N-02_114-E-W-404-W-10\n   ************* Only last 3 lines before error line shown.....\n   *************   1946   N-02_114-E-W-404-W-10,                  !- Name\n   *************   1947   Window,                                 !- Surface Type\n   *************   1948   ,                                       !- Construction Name\n   ** Severe  ** IP: IDF line~1948 Error detected in Object=FENESTRATIONSURFACE:DETAILED, name=N-02_114-E-W-404-W-10\n   **   ~~~   ** Field [Construction Name] is required but was blank\n   ************* IDF Context for following error/warning message:\n   ************* Note -- lines truncated at 300 characters, if necessary...\n   *************   1961 FenestrationSurface:Detailed,\n   ************* indicated Name=N-02_114-E-W-404-W-11\n   ************* Only last 3 lines before error line shown.....\n   *************   1962   N-02_114-E-W-404-W-11,                  !- Name\n   *************   1963   Window,                                 !- Surface Type\n   *************   1964   ,                                       !- Construction Name\n   ** Severe  ** IP: IDF line~1964 Error detected in Object=FENESTRATIONSURFACE:DETAILED, name=N-02_114-E-W-404-W-11\n   **   ~~~   ** Field [Construction Name] is required but was blank\n   ************* IDF Context for following error/warning message:\n   ************* Note -- lines truncated at 300 characters, if necessary...\n   *************   1977 FenestrationSurface:Detailed,\n   ************* indicated Name=N-02_114-E-W-404-W-12\n   ************* Only last 3 lines before error line show
[...]
W-00_118-E-W-110\n   **   ~~~   ** Field [Construction Name] is required but was blank\n   ************* IDF Context for following error/warning message:\n   ************* Note -- lines truncated at 300 characters, if necessary...\n   *************   4105 FenestrationSurface:Detailed,\n   ************* indicated Name=W-00_118-E-W-110-W-1\n   ************* Only last 3 lines before error line shown.....\n   *************   4106   W-00_118-E-W-110-W-1,                   !- Name\n   *************   4107   Window,                                 !- Surface Type\n   *************   4108   ,                                       !- Construction Name\n   ** Severe  ** IP: IDF line~4108 Error detected in Object=FENESTRATIONSURFACE:DETAILED, name=W-00_118-E-W-110-W-1\n   **   ~~~   ** Field [Construction Name] is required but was blank\n   ************* IDF Context for following error/warning message:\n   ************* Note -- lines truncated at 300 characters, if necessary...\n   *************   4121 FenestrationSurface:Detailed,\n   ************* indicated Name=W-00_118-E-W-110-W-2\n   ************* Only last 3 lines before error line shown.....\n   *************   4122   W-00_118-E-W-110-W-2,                   !- Name\n   *************   4123   Window,                                 !- Surface Type\n   *************   4124   ,                                       !- Construction Name\n   ** Severe  ** IP: IDF line~4124 Error detected in Object=FENESTRATIONSURFACE:DETAILED, name=W-00_118-E-W-110-W-2\n   **   ~~~   ** Field [Construction Name] is required but was blank\n   ************* IDF Context for following error/warning message:\n   ************* Note -- lines truncated at 300 characters, if necessary...\n   *************   4137 BuildingSurface:Detailed,\n   ************* indicated Name=W-01_118-E-W-299\n   ************* Only last 3 lines before error line shown.....\n   *************   4138   W-01_118-E-W-299,                       !- Name\n   *************   4139   Wall,                                   !- Surface Type\n   *************   4140   ,                                       !- Construction Name\n   ** Severe  ** IP: IDF line~4140 Error detected in Object=BUILDINGSURFACE:DETAILED, name=W-01_118-E-W-299\n   **   ~~~   ** Field [Construction Name] is required but was blank\n   ************* IDF Context for following error/warning message:\n   ************* Note -- lines truncated at 300 characters, if necessary...\n   *************   4153 FenestrationSurface:Detailed,\n   ************* indicated Name=W-01_118-E-W-299-W-1\n   ************* Only last 3 lines before error line shown.....\n   *************   4154   W-01_118-E-W-299-W-1,                   !- Name\n   *************   4155   Window,                                 !- Surface Type\n   *************   4156   ,                                       !- Construction Name\n   ** Severe  ** IP: IDF line~4156 Error detected in Object=FENESTRATIONSURFACE:DETAILED, name=W-01_118-E-W-299-W-1\n   **   ~~~   ** Field [Construction Name] is required but was blank\n   ************* IDF Context for following error/warning message:\n   ************* Note -- lines truncated at 300 characters, if necessary...\n   *************   4169 FenestrationSurface:Detailed,\n   ************* indicated Name=W-01_118-E-W-299-W-2\n   ************* Only last 3 lines before error line shown.....\n   *************   4170   W-01_118-E-W-299-W-2,                   !- Name\n   *************   4171   Window,                                 !- Surface Type\n   *************   4172   ,                                       !- Construction Name\n   ** Severe  ** IP: IDF line~4172 Error detected in Object=FENESTRATIONSURFACE:DETAILED, name=W-01_118-E-W-299-W-2\n   **   ~~~   ** Field [Construction Name] is required but was blank\n   ************* IDF Context for following error/warning message:\n   ************* Note -- lines truncated at 300 characters, if necessary...\n   *************   4185 FenestrationSurface:Detailed,\n   ************* indicated Name=W-01_118-E-W-299-W-3\n   ************* Only last 3 lines before error line shown.....\n   *************   4186   W-01_118-E-W-299-W-3,                   !- Name\n   *************   4187   Window,                                 !- Surface Type\n   *************   4188   ,                                       !- Construction Name\n   ** Severe  ** IP: IDF line~4188 Error detected in Object=FENESTRATIONSURFACE:DETAILED, name=W-01_118-E-W-299-W-3\n   **   ~~~   ** Field [Construction Name] is required but was blank\n   ************* IDF Context for following error/warning message:\n   ************* Note -- lines truncated at 300 characters, if necessary...\n   *************   4201 FenestrationSurface:Detailed,\n   ************* indicated Name=W-01_118-E-W-299-W-4\n   ************* Only last 3 lines before error line shown.....\n   *************   4202   W-01_118-E-W-299-W-4,                   !- Name\n   *************   4203   Window,                                 !- Surface Type\n   *************   4204   ,                                       !- Construction Name\n   ** Severe  ** IP: IDF line~4204 Error detected in Object=FENESTRATIONSURFACE:DETAILED, name=W-01_118-E-W-299-W-4\n   **   ~~~   ** Field [Construction Name] is required but was blank\n   ************* IDF Context for following error/warning message:\n   ************* Note -- lines truncated at 300 characters, if necessary...\n   *************   4217 FenestrationSurface:Detailed,\n   ************* indicated Name=W-01_118-E-W-299-W-5\n   ************* Only last 3 lines before error line shown.....\n   *************   4218   W-01_118-E-W-299-W-5,                   !- Name\n   *************   4219   Window,                                 !- Surface Type\n   *************   4220   ,                                       !- Construction Name\n   ** Severe  ** IP: IDF line~4220 Error detected in Object=FENESTRATIONSURFACE:DETAILED, name=W-01_118-E-W-299-W-5\n   **   ~~~   ** Field [Construction Name] is required but was blank\n   ************* IDF Context for following error/warning message:\n   ************* Note -- lines truncated at 300 characters, if necessary...\n   *************   4233 FenestrationSurface:Detailed,\n   ************* indicated Name=W-01_118-E-W-299-W-6\n   ************* Only last 3 lines before error line shown.....\n   *************   4234   W-01_118-E-W-299-W-6,                   !- Name\n   *************   4235   Window,                                 !- Surface Type\n   *************   4236   ,                                       !- Construction Name\n   ** Severe  ** IP: IDF line~4236 Error detected in Object=FENESTRATIONSURFACE:DETAILED, name=W-01_118-E-W-299-W-6\n   **   ~~~   ** Field [Construction Name] is required but was blank\n   ************* IDF Context for following error/warning message:\n   ************* Note -- lines truncated at 300 characters, if necessary...\n   *************   4249 FenestrationSurface:Detailed,\n   ************* indicated Name=W-01_118-E-W-299-W-7\n   ************* Only last 3 lines before error line shown.....\n   *************   4250   W-01_118-E-W-299-W-7,                   !- Name\n   *************   4251   Window,                                 !- Surface Type\n   *************   4252   ,                                       !- Construction Name\n   ** Severe  ** IP: IDF line~4252 Error detected in Object=FENESTRATIONSURFACE:DETAILED, name=W-01_118-E-W-299-W-7\n   **   ~~~   ** Field [Construction Name] is required but was blank\n   ************* IDF Context for following error/warning message:\n   ************* Note -- lines truncated at 300 characters, if necessary...\n   *************   4265 BuildingSurface:Detailed,\n   ************* indicated Name=W-02_116-E-W-416\n   ************* Only last 3 lines before error line shown.....\n   *************   4266   W-02_116-E-W-416,                       !- Name\n   *************   4267   Wall,                                   !- Surface Type\n   *************   4268   ,                                       !- Construction Name\n   ** Severe  ** IP: IDF line~4268 Error detected in Object=BUILDINGSURFACE:DETAILED, name=W-02_116-E-W-416\n   **   ~~~   ** Field [Construction Name] is required but was blank\n   ************* IDF Context for following error/warning message:\n   ************* Note -- lines truncated at 300 characters, if necessary...\n   *************   4281 FenestrationSurface:Detailed,\n   ************* indicated Name=W-02_116-E-W-416-W-1\n   ************* Only last 3 lines before error line shown.....\n   *************   4282   W-02_116-E-W-416-W-1,                   !- Name\n   *************   4283   Window,                                 !- Surface Type\n   *************   4284   ,                                       !- Construction Name\n   ** Severe  ** IP: IDF line~4284 Error detected in Object=FENESTRATIONSURFACE:DETAILED, name=W-02_116-E-W-416-W-1\n   **   ~~~   ** Field [Construction Name] is required but was blank\n   ************* IDF Context for following error/warning message:\n   ************* Note -- lines truncated at 300 characters, if necessary...\n   *************   4297 FenestrationSurface:Detailed,\n   ************* indicated Name=W-02_116-E-W-416-W-2\n   ************* Only last 3 lines before error line shown.....\n   *************   4298   W-02_116-E-W-416-W-2,                   !- Name\n   *************   4299   Window,                                 !- Surface Type\n   *************   4300   ,                                       !- Construction Name\n   ** Severe  ** IP: IDF line~4300 Error detected in Object=FENESTRATIONSURFACE:DETAILED, name=W-02_116-E-W-416-W-2\n   **   ~~~   ** Field [Construction Name] is required but was blank\n   ************* IDF Context for following error/warning message:\n   ************* Note -- lines truncated at 300 characters, if necessary...\n   *************   4313 FenestrationSurface:Detailed,\n   ************* indicated Name=W-02_116-E-W-416-W-3\n   ************* Only last 3 lines before error line shown.....\n   *************   4314   W-02_116-E-W-416-W-3,                   !- Name\n   *************   4315   Window,                                 !- Surface Type\n   *************   4316   ,                                       !- Construction Name\n   ** Severe  ** IP: IDF line~4316 Error detected in Object=FENESTRATIONSURFACE:DETAILED, name=W-02_116-E-W-416-W-3\n   **   ~~~   ** Field [Construction Name] is required but was blank\n   ************* IDF Context for following error/warning message:\n   ************* Note -- lines truncated at 300 characters, if necessary...\n   *************   4329 FenestrationSurface:Detailed,\n   ************* indicated Name=W-02_116-E-W-416-W-4\n   ************* Only last 3 lines before error line shown.....\n   *************   4330   W-02_116-E-W-416-W-4,                   !- Name\n   *************   4331   Window,                                 !- Surface Type\n   *************   4332   ,                                       !- Construction Name\n   ** Severe  ** IP: IDF line~4332 Error detected in Object=FENESTRATIONSURFACE:DETAILED, name=W-02_116-E-W-416-W-4\n   **   ~~~   ** Field [Construction Name] is required but was blank\n   ************* IDF Context for following error/warning message:\n   ************* Note -- lines truncated at 300 characters, if necessary...\n   *************   4345 FenestrationSurface:Detailed,\n   ************* indicated Name=W-02_116-E-W-416-W-5\n   ************* Only last 3 lines before error line shown.....\n   *************   4346   W-02_116-E-W-416-W-5,                   !- Name\n   *************   4347   Window,                                 !- Surface Type\n   *************   4348   ,                                       !- Construction Name\n   ** Severe  ** IP: IDF line~4348 Error detected in Object=FENESTRATIONSURFACE:DETAILED, name=W-02_116-E-W-416-W-5\n   **   ~~~   ** Field [Construction Name] is required but was blank\n   ************* IDF Context for following error/warning message:\n   ************* Note -- lines truncated at 300 characters, if necessary...\n   *************   4361 FenestrationSurface:Detailed,\n   ************* indicated Name=W-02_116-E-W-416-W-6\n   ************* Only last 3 lines before error line shown.....\n   *************   4362   W-02_116-E-W-416-W-6,                   !- Name\n   *************   4363   Window,                                 !- Surface Type\n   *************   4364   ,                                       !- Construction Name\n   ** Severe  ** IP: IDF line~4364 Error detected in Object=FENESTRATIONSURFACE:DETAILED, name=W-02_116-E-W-416-W-6\n   **   ~~~   ** Field [Construction Name] is required but was blank\n   ************* IDF Context for following error/warning message:\n   ************* Note -- lines truncated at 300 characters, if necessary...\n   *************   4377 BuildingSurface:Detailed,\n   ************* indicated Name=W-02_117-E-W-421\n   ************* Only last 3 lines before error line shown.....\n   *************   4378   W-02_117-E-W-421,                       !- Name\n   *************   4379   Wall,                                   !- Surface Type\n   *************   4380   ,                                       !- Construction Name\n   ** Severe  ** IP: IDF line~4380 Error detected in Object=BUILDINGSURFACE:DETAILED, name=W-02_117-E-W-421\n   **   ~~~   ** Field [Construction Name] is required but was blank\n   ************* IDF Context for following error/warning message:\n   ************* Note -- lines truncated at 300 characters, if necessary...\n   *************   4393 FenestrationSurface:Detailed,\n   ************* indicated Name=W-02_117-E-W-421-W-1\n   ************* Only last 3 lines before error line shown.....\n   *************   4394   W-02_117-E-W-421-W-1,                   !- Name\n   *************   4395   Window,                                 !- Surface Type\n   *************   4396   ,                                       !- Construction Name\n   ** Severe  ** IP: IDF line~4396 Error detected in Object=FENESTRATIONSURFACE:DETAILED, name=W-02_117-E-W-421-W-1\n   **   ~~~   ** Field [Construction Name] is required but was blank\n   ************* IDF Context for following error/warning message:\n   ************* Note -- lines truncated at 300 characters, if necessary...\n   *************   4409 FenestrationSurface:Detailed,\n   ************* indicated Name=W-02_117-E-W-421-W-2\n   ************* Only last 3 lines before error line shown.....\n   *************   4410   W-02_117-E-W-421-W-2,                   !- Name\n   *************   4411   Window,                                 !- Surface Type\n   *************   4412   ,                                       !- Construction Name\n   ** Severe  ** IP: IDF line~4412 Error detected in Object=FENESTRATIONSURFACE:DETAILED, name=W-02_117-E-W-421-W-2\n   **   ~~~   ** Field [Construction Name] is required but was blank\n   ************* IDF Context for following error/warning message:\n   ************* Note -- lines truncated at 300 characters, if necessary...\n   *************   4425 FenestrationSurface:Detailed,\n   ************* indicated Name=W-02_117-E-W-421-W-3\n   ************* Only last 3 lines before error line shown.....\n   *************   4426   W-02_117-E-W-421-W-3,                   !- Name\n   *************   4427   Window,                                 !- Surface Type\n   *************   4428   ,                                       !- Construction Name\n   ** Severe  ** IP: IDF line~4428 Error detected in Object=FENESTRATIONSURFACE:DETAILED, name=W-02_117-E-W-421-W-3\n   **   ~~~   ** Field [Construction Name] is required but was blank\n   ************* IDF Context for following error/warning message:\n   ************* Note -- lines truncated at 300 characters, if necessary...\n   *************   4441 FenestrationSurface:Detailed,\n   ************* indicated Name=W-02_117-E-W-421-W-4\n   ************* Only last 3 lines before error line shown.....\n   *************   4442   W-02_117-E-W-421-W-4,                   !- Name\n   *************   4443   Window,                                 !- Surface Type\n   *************   4444   ,                                       !- Construction Name\n   ** Severe  ** IP: IDF line~4444 Error detected in Object=FENESTRATIONSURFACE:DETAILED, name=W-02_117-E-W-421-W-4\n   **   ~~~   ** Field [Construction Name] is required but was blank\n   ************* IDF Context for following error/warning message:\n   ************* Note -- lines truncated at 300 characters, if necessary...\n   *************   4457 BuildingSurface:Detailed,\n   ************* indicated Name=W-B1_107-E-W-469\n   ************* Only last 3 lines before error line shown.....\n   *************   4458   W-B1_107-E-W-469,                       !- Name\n   *************   4459   Wall,                                   !- Surface Type\n   *************   4460   ,                                       !- Construction Name\n   ** Severe  ** IP: IDF line~4460 Error detected in Object=BUILDINGSURFACE:DETAILED, name=W-B1_107-E-W-469\n   **   ~~~   ** Field [Construction Name] is required but was blank\n   ************* IDF Context for following error/warning message:\n   ************* Note -- lines truncated at 300 characters, if necessary...\n   *************   4473 BuildingSurface:Detailed,\n   ************* indicated Name=W-B1_109-E-W-479\n   ************* Only last 3 lines before error line shown.....\n   *************   4474   W-B1_109-E-W-479,                       !- Name\n   *************   4475   Wall,                                   !- Surface Type\n   *************   4476   ,                                       !- Construction Name\n   ** Severe  ** IP: IDF line~4476 Error detected in Object=BUILDINGSURFACE:DETAILED, name=W-B1_109-E-W-479\n   **   ~~~   ** Field [Construction Name] is required but was blank\n   ************* IDF Context for following error/warning message:\n   ************* Note -- lines truncated at 300 characters, if necessary...\n   *************   4489 BuildingSurface:Detailed,\n   ************* indicated Name=W-RF_101-E-W-489\n   ************* Only last 3 lines before error line shown.....\n   *************   4490   W-RF_101-E-W-489,                       !- Name\n   *************   4491   Wall,                                   !- Surface Type\n   *************   4492   ,                                       !- Construction Name\n   ** Severe  ** IP: IDF line~4492 Error detected in Object=BUILDINGSURFACE:DETAILED, name=W-RF_101-E-W-489\n   **   ~~~   ** Field [Construction Name] is required but was blank\n   ** Severe  ** IP: Blank \"required\" fields found in input\n   ** Severe  ** IP: Out of \"range\" values and/or blank required fields found in input\n   **  Fatal  ** IP: Errors occurred on processing IDF file. Preceding condition(s) cause termination.\n   ...Summary of Errors that led to program termination:\n   ..... Reference severe error count=266\n   ..... Last severe error=IP: Out of \"range\" values and/or blank required fields found in input\n   ************* Warning:  Node connection errors not checked - most system input has not been read (see previous warning).\n   ************* Fatal error -- final processing.  Program exited before simulations began.  See previous error messages.\n   ************* EnergyPlus Warmup Error Summary. During Warmup: 0 Warning; 0 Severe Errors.\n   ************* EnergyPlus Sizing Error Summary. During Sizing: 0 Warning; 0 Severe Errors.\n   ************* EnergyPlus Terminated--Fatal Error Detected. 0 Warning; 266 Severe Errors; Elapsed Time=00hr 00min  0.31sec\n",
   "hash" : "EAEE54A2",
   "seed_file" : "../test.osm",
   "started_at" : "20171030T090540Z",
   "steps" : [],
   "updated_at" : "20171030T090554Z",
   "weather_file" : "USA_CA_San.Francisco.724940_TMY2.epw"
}
