{
   "completed_at" : "20171030T091632Z",
   "completed_status" : "Fail",
   "created_at" : "20171030T091500Z",
   "current_step" : 0,
   "eplusout_err" : "Program Version,EnergyPlus, Version 8.8.0-7c3bbe4830, YMD=2017.10.30 02:16,IDD_Version 8.8.0\n   ************* IDF Context for following error/warning message:\n   ************* Note -- lines truncated at 300 characters, if necessary...\n   *************    224 BuildingSurface:Detailed,\n   ************* indicated Name=diagonal-interior-wall-floor-1-space-1\n   ************* Only last 3 lines before error line shown.....\n   *************    225   diagonal-interior-wall-floor-1-space-1, !- Name\n   *************    226   Wall,                                   !- Surface Type\n   *************    227   ,                                       !- Construction Name\n   ** Severe  ** IP: IDF line~227 Error detected in Object=BUILDINGSURFACE:DETAILED, name=DIAGONAL-INTERIOR-WALL-FLOOR-1-SPACE-1\n   **   ~~~   ** Field [Construction Name] is required but was blank\n   ************* IDF Context for following error/warning message:\n   ************* Note -- lines truncated at 300 characters, if necessary...\n   *************    240 BuildingSurface:Detailed,\n   ************* indicated Name=diagonal-interior-wall-floor-1-space-4 Reversed\n   ************* Only last 3 lines before error line shown.....\n   *************    241   diagonal-interior-wall-floor-1-space-4 Reversed, !- Name\n   *************    242   Wall,                                   !- Surface Type\n   *************    243   ,                                       !- Construction Name\n   ** Severe  ** IP: IDF line~243 Error detected in Object=BUILDINGSURFACE:DETAILED, name=DIAGONAL-INTERIOR-WALL-FLOOR-1-SPACE-4 REVERSED\n   **   ~~~   ** Field [Construction Name] is required but was blank\n   ************* IDF Context for following error/warning message:\n   ************* Note -- lines truncated at 300 characters, if necessary...\n   *************    256 BuildingSurface:Detailed,\n   ************* indicated Name=exterior-wall-floor-1-space-1\n   ************* Only last 3 lines before error line shown.....\n   *************    257   exterior-wall-floor-1-space-1,          !- Name\n   *************    258   Wall,                                   !- Surface Type\n   *************    259   ,                                       !- Construction Name\n   ** Severe  ** IP: IDF line~259 Error detected in Object=BUILDINGSURFACE:DETAILED, name=EXTERIOR-WALL-FLOOR-1-SPACE-1\n   **   ~~~   ** Field [Construction Name] is required but was blank\n   ************* IDF Context for following error/warning message:\n   ************* Note -- lines truncated at 300 characters, if necessary...\n   *************    272 FenestrationSurface:Detailed,\n   ************* indicated Name=bw-opening-4\n   ************* Only last 3 lines before error line shown.....\n   *************    273   bw-opening-4,                           !- Name\n   *************    274   Window,                                 !- Surface Type\n   *************    275   ,                                       !- Construction Name\n   ** Severe  ** IP: IDF line~275 Error detected in Object=FENESTRATIONSURFACE:DETAILED, name=BW-OPENING-4\n   **   ~~~   ** Field [Construction Name] is required but was blank\n   ************* IDF Context for following error/warning message:\n   ************* Note -- lines truncated at 300 characters, if necessary...\n   *************    288 BuildingSurface:Detailed,\n   ************* indicated Name=floor-1-space-1\n   ************* Only last 3 lines before error line shown.....\n   *************    289   floor-1-space-1,                        !- Name\n   *************    290   Floor,                                  !- Surface Type\n   *************    291   ,                                       !- Construction Name\n   ** Severe  ** IP: IDF line~291 Error detected in Object=BUILDINGSURFACE:DETAILED, name=FLOOR-1-SPACE-1\n   **   ~~~   ** Field [Construction Name] is required but was blank\n   ************* IDF Context for following error/warning message:\n   ************* Note -- lines truncated at 300 characters, if necessary...\n   *************    304 BuildingSurface:Detailed,\n   ************* indicated Name=interior-wall-floor-1-space-1\n   ************* Only last 3 lines before error line shown.....\n   *************    305   interior-wall-floor-1-space-1,          !- Name\n   *************    306   Wall,                                   !- Surface Type\n   *************    307   ,                                       !- Construction Name\n   ** Severe  ** IP: IDF line~307 Error detected in Object=BUILDINGSURFACE:DETAILED, name=INTERIOR-WALL-FLOOR-1-SPACE-1\n   **   ~~~   ** Field [Construction Name] is required but was blank\n   ************* IDF Context for following error/warning message:\n   ************* Note -- lines truncated at 300 characters, if necessary...\n   *************    320 BuildingSurface:Detailed,\n   ************* indicated Name=roof-floor-1-space-1\n   ************* Only last 3 lines before error line shown.....\n   *************    321   roof-floor-1-space-1,                   !- Name\n   *************    322   Roof,                                   !- Surface Type\n   *************    323   ,                                       !- Construction Name\n   ** Severe  ** IP: IDF line~323 Error detected in Object=BUILDINGSURFACE:DETAILED, name=ROOF-FLOOR-1-SPACE-1\n   **   ~~~   ** Field [Construction Name] is required but was blank\n   ************* IDF Context for following error/warning message:\n   ************* Note -- lines truncated at 300 characters, if necessary...\n   *************    350 BuildingSurface:Detailed,\n   ************* indicated Name=diagonal-interior-wall-floor-1-space-1 Reversed\n   ************* Only last 3 lines before error line shown.....\n   *************    351   diagonal-interior-wall-floor-1-space-1 Reversed, !- Name\n   *************    352   Wall,                                   !- Surface Type\n   *************    353   ,                                       !- Construction Name\n   ** Severe  ** IP: IDF line~353 Error detected in Object=BUILDINGSURFACE:DETAILED, name=DIAGONAL-INTERIOR-WALL-FLOOR-1-SPACE-1 REVERSED\n   **   ~~~   ** Field [Construction Name] is required but was blank\n   ************* IDF Context for following error/warning message:\n   ************* Note -- lines truncated at 300 characters, if necessary...\n   *************    366 BuildingSurface:Detailed,\n   ************* indicated Name=diagonal-interior-wall-floor-1-space-2\n   ************* Only last 3 lines before error line shown.....\n   *************    367   diagonal-interior-wall-floor-1-space-2, !- Name\n   *************    368   Wall,                                   !- Surface Type\n   *************    369   ,                                       !- Construction Name\n   ** Severe  ** IP: IDF line~369 Error detected in Object=BUILDINGSURFACE:DETAILED, name=DIAGONAL-INTERIOR-WALL-FLOOR-1-SPACE-2\n   **   ~~~   ** Field [Construction Name] is required but was blank\n   ************* IDF Context for following error/warning message:\n   ************* Note -- lines truncated at 300 characters, if necessary...\n   *************    382 BuildingSurface:Detailed,\n   ************* indicated Name=exterior-wall-floor-1-space-2\n   ************* Only last 3 lines before error line shown.....\n   *************    383   exterior-wall-floor-1-space-2,          !- Name\n   *************    384   Wall,                                   !- Surface Type\n   *************    385   ,                                       !- Construction Name\n   ** Severe  ** IP: IDF line~385 Error detected in Object=BUILDINGSURFACE:DETAILED, name=EXTERIOR-WALL-FLOOR-1-SPACE-2\n   **   ~~~   ** Field [Construction Name] is required but was blank\n   ************* IDF Context for following error/warning message:\n   ************* Note -- lines truncated at 300 characters, if necessary...\n   *************    398 FenestrationSurface:Detailed,\n   ************* indicated Name=bw-opening-9\n   ************* Only last 3 lines before error line shown.....\n   *************    399   bw-opening-9,                           !- Name\n   *************    400   Window,                                 !- Surface Type\n   *************    401   ,                                       !- Construction Name\n   ** Severe  ** IP: IDF line~401 Error detected in Object=FENESTRATIONSURFACE:DETAILED, name=BW-OPENING-9\n   **   ~~~   ** Field [Construction Name] is required but was blank\n   ************* IDF Context for following error/warning message:\n   ************* Note -- lines truncated at 300 characters, if necessary...\n   *************    414 BuildingSurface:Detailed,\n   ************* indicated Name=floor-1-space-2\n   ************* Only last 3 lines before error line shown.....\n   *************    415   floor-1-space-2,                        !- Name\n   *************    416   Floor,                                  !- Surface Type\n   *************    417   ,                                       !- Construction Name\n   ** Severe  ** IP: IDF line~417 Error detected in Object=BUILDINGSURFACE:DETAILED, name=FLOOR-1-SPACE-2\n   **   ~~~   ** Field [Construction Name] is required but was blank\n   ************* IDF Context for following error/warning message:\n   ************* Note -- lines truncated at 300 characters, if necessary...\n   *************    430 BuildingSurface:Detailed,\n   ************* indicated Name=interior-wall-floor-1-space-2\n   ************* Only last 3 lines before error line shown.....\n   *************    431   interior-wall-floor-1-space-2,          !- Name\n   *************    432   Wall,                                   !- Surface Type\n   *************    433   ,                                       !- Construction Name\n   ** Severe  ** IP: IDF line~433 Error detected in Object=BUILDINGSURFACE:DETAILED, name=INTERIOR-WALL-FLOOR-1-SPACE-2\n   **   ~~~   ** Field [Construction Name] is required but was blank\n   ************* IDF Context for following error/warning message:\n   ************* Note -- lines truncated at 300 characters, if necessary...\n   *************    446 BuildingSurface:Detailed,\n   ************* indicated Name=roof-floor-1-space-2\n   ************* Only last 3 lines before error line shown.....\n   *************    447   roof-floor-1-space-2,                   !- Name\n   *************    448   Roof,                                   !- Surface Type\n   *************    449   ,                                       !- Construction Name\n   ** Severe  ** IP: IDF line~449 Error detected in Object=BUILDINGSURFACE:DETAILED, name=ROOF-FLOOR-1-SPACE-2\n   **   ~~~   ** Field [Construction Name] is required but was blank\n   ************* IDF Context for following error/warning message:\n   ************* Note -- lines truncated at 300 characters, if necessary...\n   *************    476 BuildingSurface:Detailed,\n   ************* indicated Name=diagonal-interior-wall-floor-1-space-2 Reversed\n   ************* Only last 3 lines before error line shown.....\n   *************    477   diagonal-interior-wall-floor-1-space-2 Reversed, !- Name\n   *************    478   Wall,                                   !- Surface Type\n   *************    479   ,                                       !- Construction Name\n   ** Severe  ** IP: IDF line~479 Error detected in Object=BUILDINGSURFACE:DETAILED, name=DIAGONAL-INTERIOR-WALL-FLOOR-1-SPACE-2 REVERSED\n   **   ~~~   ** Field [Construction Name] is required but was blank\n   ************* IDF Context for following error/warning message:\n   ************* Note -- lines truncated at 300 characters, if necessary...\n   *************    492 BuildingSurface:Detailed,\n   ************* indicated Name=diagonal-interior-wall-floor-1-space-3\n   ************* Only last 3 lines before error line shown.....\n   *************    493   diagonal-interior-wall-floor-1-space-3, !- Name\n   *************    494   Wall,                                   !- Surface Type\n   *************    495   ,                                       !- Construction Name\n   ** Severe  ** IP: IDF line~495 Error detected in Object=BUILDINGSURFACE:DETAILED, name=DIAGONAL-INTERIOR-WALL-FLOOR-1-SPACE-3\n   **   ~~~   ** Field [Construction Name] is required but was blank\n   ************* IDF Context for following error/warning message:\n   ************* Note -- lines truncated at 300 characters, if necessary...\n   *************    508 BuildingSurface:Detailed,\n   ************* indicated Name=exterior-wall-floor-1-space-3\n   ************* Only last 3 lines before error line shown.....\n   *************    509   exterior-wall-floor-1-space-3,          !- Name\n   *************    510   Wall,                                   !- Surface Type\n   *************    511   ,                                       !- Construction Name\n   ** Severe  ** IP: IDF line~511 Error detected in Object=BUILDINGSURFACE:DETAILED, name=EXTERIOR-WALL-FLOOR-1-SPACE-3\n   **   ~~~   ** Field [Construction Name] is required but was blank\n   ************* IDF Context for following error/warning message:\n   ************* Note -- lines truncated at 300 characters, if necessary...\n   *************    524 FenestrationSurface:Detailed,\n   ************* indicated Name=bw-opening-14\n   ************* Only last 3 lines before error line shown.....\n   *************    525   bw-opening-14,                          !- Name\n   *************    526   Window,                                 !- Surface Type\n   *************    527   ,                                       !- Construction Name\n   ** Severe  ** IP: IDF line~527 Error detected in Object=FENESTRATIONSURFACE:DETAILED, name=BW-OPENING-14\n   **   ~~~   ** Field [Construction Name] is required but was blank\n   ************* IDF Context for following error/warning message:\n   ************* Note -- lines truncated at 300 characters, if necessary...\n   *************    540 BuildingSurface:Detailed,\n   ************* indicated Name=floor-1-space-3\n   ************* Only last 3 lines before error line shown.....\n   *************    541   floor-1-space-3,                        !- Name\n   *************    542   Floor,                                  !- Surface Type\n   *************    543   ,                                       !- Construction Name\n   ** Severe  ** IP: IDF line~543 Error detected in Object=BUILDINGSURFACE:DETAILED, name=FLOOR-1-SPACE-3\n   **   ~~~   ** Field [Construction Name] is required but was blank\n   ************* IDF Context for following error/warning message:\n   ************* Note -- lines truncated at 300 characters, if necessary...\n   *************    556 BuildingSurface:Detailed,\n   ************* indicated Name=interior-wall-floor-1-space-3\n   ************* Only last 3 lines before error line shown.....\n   *************    557   interior-wall-floor-1-space-3,          !- Name\n   *************    558   Wall,                                   !- Surface Type\n   *************    559   ,                                       !- Construction Name\n   ** Severe  ** IP: IDF line~559 Error detected in Object=BUILDINGSURFACE:DETAILED, name=INTERIOR-WALL-FLOOR-1-SPACE-3\n   **   ~~~   ** Field [Construction Name] is required but was blank\n   ************* IDF Context for following error/warning message:\n   ************* Note -- lines truncated at 300 characters, if necessary...\n   *************    572 BuildingSurface:Detailed,\n   ************* indicated Name=roof-floor-1-space-3\n   ************* Only last 3 lines before error line shown.....\n   *************    573   roof-floor-1-space-3,                   !- Name\n   *************    574   Roof,                                   !- Surface Type\n   *************    575   ,                                       !- Construction Name\n   ** Severe  ** IP: IDF line~575 Error detected in Object=BUILDINGSURFACE:DETAILED, name=ROOF-FLOOR-1-SPACE-3\n   **   ~~~   ** Field [Construction Name] is required but was blank\n   ************* IDF Context for following error/warning message:\n   ************* Note -- lines truncated at 300 characters, if necessary...\n   *************    602 BuildingSurface:Detailed,\n   ************* indicated Name=diagonal-interior-wall-floor-1-space-3 Reversed\n   ************* Only last 3 lines before error line shown.....\n   *************    603   diagonal-interior-wall-floor-1-space-3 Reversed, !- Name\n   *************    604   Wall,                                   !- Surface Type\n   *************    605   ,                                       !- Construction Name\n   ** Severe  ** IP: IDF line~605 Error detected in Object=BUILDINGSURFACE:DETAILED, name=DIAGONAL-INTERIOR-WALL-FLOOR-1-SPACE-3 REVERSED\n   **   ~~~   ** Field [Construction Name] is required but was blank\n   ************* IDF Context for following error/warning message:\n   ************* Note -- lines truncated at 300 characters, if necessary...\n   *************    618 BuildingSurface:Detailed,\n   ************* indicated Name=diagonal-interior-wall-floor-1-space-4\n   ************* Only last 3 lines before error line shown.....\n   *************    619   diagonal-interior-wall-floor-1-space-4, !- Name\n   *************    620   Wall,                                   !- Surface Type\n   *************    621   ,                                       !- Construction Name\n   ** Severe  ** IP: IDF line~621 Error detected in Object=BUILDINGSURFACE:DETAILED, name=DIAGONAL-INTERIOR-WALL-FLOOR-1-SPACE-4\n   **   ~~~   ** Field [Construction Name] is required but was blank\n   ************* IDF Context for following error/warning message:\n   ************* Note -- lines truncated at 300 characters, if necessary...\n   *************    634 BuildingSurface:Detailed,\n   ************* indicated Name=exterior-wall-floor-1-space-4\n   ************* Only last 3 lines before error line shown.....\n   *************    635   exterior-wall-floor-1-space-4,          !- Name\n   *************    636   Wall,                                   !- Surface Type\n   *************    637   ,                                       !- Construction Name\n   ** Severe  ** IP: IDF line~637 Error detected in Object=BUILDINGSURFACE:DETAILED, name=EXTERIOR-WALL-FLOOR-1-SPACE-4\n   **   ~~~   ** Field [Construction Name] is required but was blank\n   ************* IDF Context for following error/warning message:\n   ************* Note -- lines truncated at 300 characters, if necessary...\n   *************    650 FenestrationSurface:Detailed,\n   ************* indicated Name=bw-opening-19\n   ************* Only last 3 lines before error line shown.....\n   *************    651   bw-opening-19,                          !- Name\n   *************    652   Window,                                 !- Surface Type\n   *************    653   ,                                       !- Construction Name\n   ** Severe  ** IP: IDF line~653 Error detected in Object=FENESTRATIONSURFACE:DETAILED, name=BW-OPENING-19\n   **   ~~~   ** Field [Construction Name] is required but was blank\n   ************* IDF Context for following error/warning message:\n   ************* Note -- lines truncated at 300 characters, if necessary...\n   *************    666 BuildingSurface:Detailed,\n   ************* indicated Name=floor-1-space-4\n   ************* Only last 3 lines before error line shown.....\n   *************    667   floor-1-space-4,                        !- Name\n   *************    668   Floor,                                  !- Surface Type\n   *************    669   ,                                       !- Construction Name\n   ** Severe  ** IP: IDF line~669 Error detected in Object=BUILDINGSURFACE:DETAILED, name=FLOOR-1-SPACE-4\n   **   ~~~   ** Field [Construction Name] is required but was blank\n   ************* IDF Context for following error/warning message:\n   ************* Note -- lines truncated at 300 characters, if necessary...\n   *************    682 BuildingSurface:Detailed,\n   ************* indicated Name=interior-wall-floor-1-space-4\n   ************* Only last 3 lines before error line shown.....\n   *************    683   interior-wall-floor-1-space-4,          !- Name\n   *************    684   Wall,                                   !- Surface Type\n   *************    685   ,                                       !- Construction Name\n   ** Severe  ** IP: IDF line~685 Error detected in Object=BUILDINGSURFACE:DETAILED, name=INTERIOR-WALL-FLOOR-1-SPACE-4\n   **   ~~~   ** Field [Construction Name] is required but was blank\n   ************* IDF Context for following error/warning message:\n   ************* Note -- lines truncated at 300 characters, if necessary...\n   *************    698 BuildingSurface:Detailed,\n   ************* indicated Name=roof-floor-1-space-4\n   ************* Only last 3 lines before error line shown.....\n   *************    699   roof-floor-1-space-4,                   !- Name\n   *************    700   Roof,                                   !- Surface Type\n   *************    701   ,                                       !- Construction Name\n   ** Severe  ** IP: IDF line~701 Error detected in Object=BUILDINGSURFACE:DETAILED, name=ROOF-FLOOR-1-SPACE-4\n   **   ~~~   ** Field [Construction Name] is required but was blank\n   ************* IDF Context for following error/warning message:\n   ************* Note -- lines truncated at 300 characters, if necessary...\n   *************    728 BuildingSurface:Detailed,\n   ************* indicated Name=interior-wall-floor-1-space-1 Reversed\n   ************* Only last 3 lines before error line shown.....\n   *************    729   interior-wall-floor-1-space-1 Reversed, !- Name\n   *************    730   Wall,                                   !- Surface Type\n   *************    731   ,                                       !- Construction Name\n   ** Severe  ** IP: IDF line~731 Error detected in Object=BUILDINGSURFACE:DETAILED, name=INTERIOR-WALL-FLOOR-1-SPACE-1 REVERSED\n   **   ~~~   ** Field [Construction Name] is required but was blank\n   ************* IDF Context for following error/warning message:\n   ************* Note -- lines truncated at 300 characters, if necessary...\n   *************    744 BuildingSurface:Detailed,\n   ************* indicated Name=interior-wall-floor-1-space-2 Reversed\n   ************* Only last 3 lines before error line shown.....\n   *************    745   interior-wall-floor-1-space-2 Reversed, !- Name\n   *************    746   Wall,                                   !- Surface Type\n   *************    747   ,                                       !- Construction Name\n   ** Severe  ** IP: IDF line~747 Error detected in Object=BUILDINGSURFACE:DETAILED, name=INTERIOR-WALL-FLOOR-1-SPACE-2 REVERSED\n   **   ~~~   ** Field [Construction Name] is required but was blank\n   ************* IDF Context for following error/warning message:\n   ************* Note -- lines truncated at 300 characters, if necessary...\n   *************    760 BuildingSurface:Detailed,\n   ************* indicated Name=interior-wall-floor-1-space-3 Reversed\n   ************* Only last 3 lines before error line shown.....\n   *************    761   interior-wall-floor-1-space-3 Reversed, !- Name\n   *************    762   Wall,                                   !- Surface Type\n   *************    763   ,                                       !- Construction Name\n   ** Severe  ** IP: IDF line~763 Error detected in Object=BUILDINGSURFACE:DETAILED, name=INTERIOR-WALL-FLOOR-1-SPACE-3 REVERSED\n   **   ~~~   ** Field [Construction Name] is required but was blank\n   ************* IDF Context for following error/warning message:\n   ************* Note -- lines truncated at 300 characters, if necessary...\n   *************    776 BuildingSurface:Detailed,\n   ************* indicated Name=interior-wall-floor-1-space-4 Reversed\n   ************* Only last 3 lines before error line shown.....\n   *************    777   interior-wall-floor-1-space-4 Reversed, !- Name\n   *************    778   Wall,                                   !- Surface Type\n   *************    779   ,                                       !- Construction Name\n   ** Severe  ** IP: IDF line~779 Error detected in Object=BUILDINGSURFACE:DETAILED, name=INTERIOR-WALL-FLOOR-1-SPACE-4 REVERSED\n   **   ~~~   ** Field [Construction Name] is required but was blank\n   ** Severe  ** IP: IDF line~837 Object=CONSTRUCTION, name=CONSTRUCTION 1, Required Field=[Outside Layer] was blank.\n   ** Severe  ** IP: IDF line~855 Object=CONSTRUCTION:INTERNALSOURCE, name=CONSTRUCTION INTERNAL SOURCE 1, Required Field=[Outside Layer] was blank.\n   ** Warning ** IP: Note -- Some missing fields have been filled with defaults. See the audit output file for details.\n   ** Severe  ** IP: Blank \"required\" fields found in input\n   **   ~~~   ** Possible Invalid Numerics or other problems\n   **  Fatal  ** IP: Errors occurred on processing IDF file. Preceding condition(s) cause termination.\n   ...Summary of Errors that led to program termination:\n   ..... Reference severe error count=35\n   ..... Last severe error=IP: Blank \"required\" fields found in input\n   ************* Warning:  Node connection errors not checked - most system input has not been read (see previous warning).\n   ************* Fatal error -- final processing.  Program exited before simulations began.  See previous error messages.\n   ************* EnergyPlus Warmup Error Summary. During Warmup: 0 Warning; 0 Severe Errors.\n   ************* EnergyPlus Sizing Error Summary. During Sizing: 0 Warning; 0 Severe Errors.\n   ************* EnergyPlus Terminated--Fatal Error Detected. 1 Warning; 35 Severe Errors; Elapsed Time=00hr 00min  0.25sec\n",
   "hash" : "56379A5D",
   "seed_file" : "../test.osm",
   "started_at" : "20171030T091621Z",
   "steps" : [],
   "updated_at" : "20171030T091632Z",
   "weather_file" : "USA_CA_San.Francisco.724940_TMY2.epw"
}
