Program Version,EnergyPlus, Version 8.8.0-7c3bbe4830, YMD=2017.10.30 02:05,IDD_Version 8.8.0
   ************* IDF Context for following error/warning message:
   ************* Note -- lines truncated at 300 characters, if necessary...
   *************    225 BuildingSurface:Detailed,
   ************* indicated Name=B-00_110-E-F-58
   ************* Only last 3 lines before error line shown.....
   *************    226   B-00_110-E-F-58,                        !- Name
   *************    227   Floor,                                  !- Surface Type
   *************    228   ,                                       !- Construction Name
   ** Severe  ** IP: IDF line~228 Error detected in Object=BUILDINGSURFACE:DETAILED, name=B-00_110-E-F-58
   **   ~~~   ** Field [Construction Name] is required but was blank
   ************* IDF Context for following error/warning message:
   ************* Note -- lines truncated at 300 characters, if necessary...
   *************    241 BuildingSurface:Detailed,
   ************* indicated Name=B-00_111-E-F-63
   ************* Only last 3 lines before error line shown.....
   *************    242   B-00_111-E-F-63,                        !- Name
   *************    243   Floor,                                  !- Surface Type
   *************    244   ,                                       !- Construction Name
   ** Severe  ** IP: IDF line~244 Error detected in Object=BUILDINGSURFACE:DETAILED, name=B-00_111-E-F-63
   **   ~~~   ** Field [Construction Name] is required but was blank
   ************* IDF Context for following error/warning message:
   ************* Note -- lines truncated at 300 characters, if necessary...
   *************    257 BuildingSurface:Detailed,
   ************* indicated Name=B-00_112-E-F-70
   ************* Only last 3 lines before error line shown.....
   *************    258   B-00_112-E-F-70,                        !- Name
   *************    259   Floor,                                  !- Surface Type
   *************    260   ,                                       !- Construction Name
   ** Severe  ** IP: IDF line~260 Error detected in Object=BUILDINGSURFACE:DETAILED, name=B-00_112-E-F-70
   **   ~~~   ** Field [Construction Name] is required but was blank
   ************* IDF Context for following error/warning message:
   ************* Note -- lines truncated at 300 characters, if necessary...
   *************    273 BuildingSurface:Detailed,
   ************* indicated Name=B-00_113-E-F-76
   ************* Only last 3 lines before error line shown.....
   *************    274   B-00_113-E-F-76,                        !- Name
   *************    275   Floor,                                  !- Surface Type
   *************    276   ,                                       !- Construction Name
   ** Severe  ** IP: IDF line~276 Error detected in Object=BUILDINGSURFACE:DETAILED, name=B-00_113-E-F-76
   **   ~~~   ** Field [Construction Name] is required but was blank
   ************* IDF Context for following error/warning message:
   ************* Note -- lines truncated at 300 characters, if necessary...
   *************    293 BuildingSurface:Detailed,
   ************* indicated Name=B-00_123-E-F-163
   ************* Only last 3 lines before error line shown.....
   *************    294   B-00_123-E-F-163,                       !- Name
   *************    295   Floor,                                  !- Surface Type
   *************    296   ,                                       !- Construction Name
   ** Severe  ** IP: IDF line~296 Error detected in Object=BUILDINGSURFACE:DETAILED, name=B-00_123-E-F-163
   **   ~~~   ** Field [Construction Name] is required but was blank
   ************* IDF Context for following error/warning message:
   ************* Note -- lines truncated at 300 characters, if necessary...
   *************    309 BuildingSurface:Detailed,
   ************* indicated Name=B-00_129-E-F-185
   ************* Only last 3 lines before error line shown.....
   *************    310   B-00_129-E-F-185,                       !- Name
   *************    311   Floor,                                  !- Surface Type
   *************    312   ,                                       !- Construction Name
   ** Severe  ** IP: IDF line~312 Error detected in Object=BUILDINGSURFACE:DETAILED, name=B-00_129-E-F-185
   **   ~~~   ** Field [Construction Name] is required but was blank
   ************* IDF Context for following error/warning message:
   ************* Note -- lines truncated at 300 characters, if necessary...
   *************    325 BuildingSurface:Detailed,
   ************* indicated Name=B-00_130-E-F-194
   ************* Only last 3 lines before error line shown.....
   *************    326   B-00_130-E-F-194,                       !- Name
   *************    327   Floor,                                  !- Surface Type
   *************    328   ,                                       !- Construction Name
   ** Severe  ** IP: IDF line~328 Error detected in Object=BUILDINGSURFACE:DETAILED, name=B-00_130-E-F-194
   **   ~~~   ** Field [Construction Name] is required but was blank
   ************* IDF Context for following error/warning message:
   ************* Note -- lines truncated at 300 characters, if necessary...
   *************    345 BuildingSurface:Detailed,
   ************* indicated Name=B-B1_100-E-F-425
   ************* Only last 3 lines before error line shown.....
   *************    346   B-B1_100-E-F-425,                       !- Name
   *************    347   Floor,                                  !- Surface Type
   *************    348   ,                                       !- Construction Name
   ** Severe  ** IP: IDF line~348 Error detected in Object=BUILDINGSURFACE:DETAILED, name=B-B1_100-E-F-425
   **   ~~~   ** Field [Construction Name] is required but was blank
   ************* IDF Context for following error/warning message:
   ************* Note -- lines truncated at 300 characters, if necessary...
   *************    361 BuildingSurface:Detailed,
   ************* indicated Name=B-B1_101-E-F-431
   ************* Only last 3 lines before error line shown.....
   *************    362   B-B1_101-E-F-431,                       !- Name
   *************    363   Floor,                                  !- Surface Type
   *************    364   ,                                       !- Construction Name
   ** Severe  ** IP: IDF line~364 Error detected in Object=BUILDINGSURFACE:DETAILED, name=B-B1_101-E-F-431
   **   ~~~   ** Field [Construction Name] is required but was blank
   ************* IDF Context for following error/warning message:
   ************* Note -- lines truncated at 300 characters, if necessary...
   *************    377 BuildingSurface:Detailed,
   ************* indicated Name=B-B1_102-E-F-437
   ************* Only last 3 lines before error line shown.....
   *************    378   B-B1_102-E-F-437,                       !- Name
   *************    379   Floor,                                  !- Surface Type
   *************    380   ,                                       !- Construction Name
   ** Severe  ** IP: IDF line~380 Error detected in Object=BUILDINGSURFACE:DETAILED, name=B-B1_102-E-F-437
   **   ~~~   ** Field [Construction Name] is required but was blank
   ************* IDF Context for following error/warning message:
   ************* Note -- lines truncated at 300 characters, if necessary...
   *************    393 BuildingSurface:Detailed,
   ************* indicated Name=B-B1_103-E-F-441
   ************* Only last 3 lines before error line shown.....
   *************    394   B-B1_103-E-F-441,                       !- Name
   *************    395   Floor,                                  !- Surface Type
   *************    396   ,                                       !- Construction Name
   ** Severe  ** IP: IDF line~396 Error detected in Object=BUILDINGSURFACE:DETAILED, name=B-B1_103-E-F-441
   **   ~~~   ** Field [Construction Name] is required but was blank
   ************* IDF Context for following error/warning message:
   ************* Note -- lines truncated at 300 characters, if necessary...
   *************    409 BuildingSurface:Detailed,
   ************* indicated Name=B-B1_104-E-F-446
   ************* Only last 3 lines before error line shown.....
   *************    410   B-B1_104-E-F-446,                       !- Name
   *************    411   Floor,                                  !- Surface Type
   *************    412   ,                                       !- Construction Name
   ** Severe  ** IP: IDF line~412 Error detected in Object=BUILDINGSURFACE:DETAILED, name=B-B1_104-E-F-446
   **   ~~~   ** Field [Construction Name] is required but was blank
   ************* IDF Context for following error/warning message:
   ************* Note -- lines truncated at 300 characters, if necessary...
   *************    435 BuildingSurface:Detailed,
   ************* indicated Name=B-B1_105-E-F-460
   ************* Only last 3 lines before error line shown.....
   *************    436   B-B1_105-E-F-460,                       !- Name
   *************    437   Floor,                                  !- Surface Type
   *************    438   ,                                       !- Construction Name
   ** Severe  ** IP: IDF line~438 Error detected in Object=BUILDINGSURFACE:DETAILED, name=B-B1_105-E-F-460
   **   ~~~   ** Field [Construction Name] is required but was blank
   ************* IDF Context for following error/warning message:
   ************* Note -- lines truncated at 300 characters, if necessary...
   *************    453 BuildingSurface:Detailed,
   ************* indicated Name=B-B1_106-E-F-464
   ************* Only last 3 lines before error line shown.....
   *************    454   B-B1_106-E-F-464,                       !- Name
   *************    455   Floor,                                  !- Surface Type
   *************    456   ,                                       !- Construction Name
   ** Severe  ** IP: IDF line~456 Error detected in Object=BUILDINGSURFACE:DETAILED, name=B-B1_106-E-F-464
   **   ~~~   ** Field [Construction Name] is required but was blank
   ************* IDF Context for following error/warning message:
   ************* Note -- lines truncated at 300 characters, if necessary...
   *************    473 BuildingSurface:Detailed,
   ************* indicated Name=B-B1_107-E-F-470
   ************* Only last 3 lines before error line shown.....
   *************    474   B-B1_107-E-F-470,                       !- Name
   *************    475   Floor,                                  !- Surface Type
   *************    476   ,                                       !- Construction Name
   ** Severe  ** IP: IDF line~476 Error detected in Object=BUILDINGSURFACE:DETAILED, name=B-B1_107-E-F-470
   **   ~~~   ** Field [Construction Name] is required but was blank
   ************* IDF Context for following error/warning message:
   ************* Note -- lines truncated at 300 characters, if necessary...
   *************    493 BuildingSurface:Detailed,
   ************* indicated Name=B-B1_108-E-F-474
   ************* Only last 3 lines before error line shown.....
   *************    494   B-B1_108-E-F-474,                       !- Name
   *************    495   Floor,                                  !- Surface Type
   *************    496   ,                                       !- Construction Name
   ** Severe  ** IP: IDF line~496 Error detected in Object=BUILDINGSURFACE:DETAILED, name=B-B1_108-E-F-474
   **   ~~~   ** Field [Construction Name] is required but was blank
   ************* IDF Context for following error/warning message:
   ************* Note -- lines truncated at 300 characters, if necessary...
   *************    509 BuildingSurface:Detailed,
   ************* indicated Name=B-B1_109-E-F-480
   ************* Only last 3 lines before error line shown.....
   *************    510   B-B1_109-E-F-480,                       !- Name
   *************    511   Floor,                                  !- Surface Type
   *************    512   ,                                       !- Construction Name
   ** Severe  ** IP: IDF line~512 Error detected in Object=BUILDINGSURFACE:DETAILED, name=B-B1_109-E-F-480
   **   ~~~   ** Field [Construction Name] is required but was blank
   ************* IDF Context for following error/warning message:
   ************* Note -- lines truncated at 300 characters, if necessary...
   *************    537 BuildingSurface:Detailed,
   ************* indicated Name=E-00_113-E-W-75
   ************* Only last 3 lines before error line shown.....
   *************    538   E-00_113-E-W-75,                        !- Name
   *************    539   Wall,                                   !- Surface Type
   *************    540   ,                                       !- Construction Name
   ** Severe  ** IP: IDF line~540 Error detected in Object=BUILDINGSURFACE:DETAILED, name=E-00_113-E-W-75
   **   ~~~   ** Field [Construction Name] is required but was blank
   ************* IDF Context for following error/warning message:
   ************* Note -- lines truncated at 300 characters, if necessary...
   *************    553 FenestrationSurface:Detailed,
   ************* indicated Name=E-00_113-E-W-75-W-1
   ************* Only last 3 lines before error line shown.....
   *************    554   E-00_113-E-W-75-W-1,                    !- Name
   *************    555   Window,                                 !- Surface Type
   *************    556   ,                                       !- Construction Name
   ** Severe  ** IP: IDF line~556 Error detected in Object=FENESTRATIONSURFACE:DETAILED, name=E-00_113-E-W-75-W-1
   **   ~~~   ** Field [Construction Name] is required but was blank
   ************* IDF Context for following error/warning message:
   ************* Note -- lines truncated at 300 characters, if necessary...
   *************    569 FenestrationSurface:Detailed,
   ************* indicated Name=E-00_113-E-W-75-W-2
   ************* Only last 3 lines before error line shown.....
   *************    570   E-00_113-E-W-75-W-2,                    !- Name
   *************    571   Window,                                 !- Surface Type
   *************    572   ,                                       !- Construction Name
   ** Severe  ** IP: IDF line~572 Error detected in Object=FENESTRATIONSURFACE:DETAILED, name=E-00_113-E-W-75-W-2
   **   ~~~   ** Field [Construction Name] is required but was blank
   ************* IDF Context for following error/warning message:
   ************* Note -- lines truncated at 300 characters, if necessary...
   *************    585 FenestrationSurface:Detailed,
   ************* indicated Name=E-00_113-E-W-75-W-3
   ************* Only last 3 lines before error line shown.....
   *************    586   E-00_113-E-W-75-W-3,                    !- Name
   *************    587   Window,                                 !- Surface Type
   *************    588   ,                                       !- Construction Name
   ** Severe  ** IP: IDF line~588 Error detected in Object=FENESTRATIONSURFACE:DETAILED, name=E-00_113-E-W-75-W-3
   **   ~~~   ** Field [Construction Name] is required but was blank
   ************* IDF Context for following error/warning message:
   ************* Note -- lines truncated at 300 characters, if necessary...
   *************    601 BuildingSurface:Detailed,
   ************* indicated Name=E-00_130-E-W-192
   ************* Only last 3 lines before error line shown.....
   *************    602   E-00_130-E-W-192,                       !- Name
   *************    603   Wall,                                   !- Surface Type
   *************    604   ,                                       !- Construction Name
   ** Severe  ** IP: IDF line~604 Error detected in Object=BUILDINGSURFACE:DETAILED, name=E-00_130-E-W-192
   **   ~~~   ** Field [Construction Name] is required but was blank
   ************* IDF Context for following error/warning message:
   ************* Note -- lines truncated at 300 characters, if necessary...
   *************    617 FenestrationSurface:Detailed,
   ************* indicated Name=E-00_130-E-W-192-W-1
   ************* Only last 3 lines before error line shown.....
   *************    618   E-00_130-E-W-192-W-1,                   !- Name
   *************    619   Window,                                 !- Surface Type
   *************    620   ,                                       !- Construction Name
   ** Severe  ** IP: IDF line~620 Error detected in Object=FENESTRATIONSURFACE:DETAILED, name=E-00_130-E-W-192-W-1
   **   ~~~   ** Field [Construction Name] is required but was blank
   ************* IDF Context for following error/warning message:
   ************* Note -- lines truncated at 300 characters, if necessary...
   *************    633 FenestrationSurface:Detailed,
   ************* indicated Name=E-00_130-E-W-192-W-2
   ************* Only last 3 lines before error line shown.....
   *************    634   E-00_130-E-W-192-W-2,                   !- Name
   *************    635   Window,                                 !- Surface Type
   *************    636   ,                                       !- Construction Name
   ** Severe  ** IP: IDF line~636 Error detected in Object=FENESTRATIONSURFACE:DETAILED, name=E-00_130-E-W-192-W-2
   **   ~~~   ** Field [Construction Name] is required but was blank
   ************* IDF Context for following error/warning message:
   ************* Note -- lines truncated at 300 characters, if necessary...
   *************    649 FenestrationSurface:Detailed,
   ************* indicated Name=E-00_130-E-W-192-W-3
   ************* Only last 3 lines before error line shown.....
   *************    650   E-00_130-E-W-192-W-3,                   !- Name
   *************    651   Window,                                 !- Surface Type
   *************    652   ,                                       !- Construction Name
   ** Severe  ** IP: IDF line~652 Error detected in Object=FENESTRATIONSURFACE:DETAILED, name=E-00_130-E-W-192-W-3
   **   ~~~   ** Field [Construction Name] is required but was blank
   ************* IDF Context for following error/warning message:
   ************* Note -- lines truncated at 300 characters, if necessary...
   *************    665 FenestrationSurface:Detailed,
   ************* indicated Name=E-00_130-E-W-192-W-4
   ************* Only last 3 lines before error line shown.....
   *************    666   E-00_130-E-W-192-W-4,                   !- Name
   *************    667   Window,                                 !- Surface Type
   *************    668   ,                                       !- Construction Name
   ** Severe  ** IP: IDF line~668 Error detected in Object=FENESTRATIONSURFACE:DETAILED, name=E-00_130-E-W-192-W-4
   **   ~~~   ** Field [Construction Name] is required but was blank
   ************* IDF Context for following error/warning message:
   ************* Note -- lines truncated at 300 characters, if necessary...
   *************    681 BuildingSurface:Detailed,
   ************* indicated Name=E-01_115-E-W-277
   ************* Only last 3 lines before error line shown.....
   *************    682   E-01_115-E-W-277,                       !- Name
   *************    683   Wall,                                   !- Surface Type
   *************    684   ,                                       !- Construction Name
   ** Severe  ** IP: IDF line~684 Error detected in Object=BUILDINGSURFACE:DETAILED, name=E-01_115-E-W-277
   **   ~~~   ** Field [Construction Name] is required but was blank
   ************* IDF Context for following error/warning message:
   ************* Note -- lines truncated at 300 characters, if necessary...
   *************    697 FenestrationSurface:Detailed,
   ************* indicated Name=E-01_115-E-W-277-W-1
   ************* Only last 3 lines before error line shown.....
   *************    698   E-01_115-E-W-277-W-1,                   !- Name
   *************    699   Window,                                 !- Surface Type
   *************    700   ,                                       !- Construction Name
   ** Severe  ** IP: IDF line~700 Error detected in Object=FENESTRATIONSURFACE:DETAILED, name=E-01_115-E-W-277-W-1
   **   ~~~   ** Field [Construction Name] is required but was blank
   ************* IDF Context for following error/warning message:
   ************* Note -- lines truncated at 300 characters, if necessary...
   *************    713 BuildingSurface:Detailed,
   ************* indicated Name=E-01_116-E-W-284
   ************* Only last 3 lines before error line shown.....
   *************    714   E-01_116-E-W-284,                       !- Name
   *************    715   Wall,                                   !- Surface Type
   *************    716   ,                                       !- Construction Name
   ** Severe  ** IP: IDF line~716 Error detected in Object=BUILDINGSURFACE:DETAILED, name=E-01_116-E-W-284
   **   ~~~   ** Field [Construction Name] is required but was blank
   ************* IDF Context for following error/warning message:
   ************* Note -- lines truncated at 300 characters, if necessary...
   *************    729 FenestrationSurface:Detailed,
   ************* indicated Name=E-01_116-E-W-284-W-1
   ************* Only last 3 lines before error line shown.....
   *************    730   E-01_116-E-W-284-W-1,                   !- Name
   *************    731   Window,                                 !- Surface Type
   *************    732   ,                                       !- Construction Name
   ** Severe  ** IP: IDF line~732 Error detected in Object=FENESTRATIONSURFACE:DETAILED, name=E-01_116-E-W-284-W-1
   **   ~~~   ** Field [Construction Name] is required but was blank
   ************* IDF Context for following error/warning message:
   ************* Note -- lines truncated at 300 characters, if necessary...
   *************    745 FenestrationSurface:Detailed,
   ************* indicated Name=E-01_116-E-W-284-W-2
   ************* Only last 3 lines before error line shown.....
   *************    746   E-01_116-E-W-284-W-2,                   !- Name
   *************    747   Window,                                 !- Surface Type
   *************    748   ,                                       !- Construction Name
   ** Severe  ** IP: IDF line~748 Error detected in Object=FENESTRATIONSURFACE:DETAILED, name=E-01_116-E-W-284-W-2
   **   ~~~   ** Field [Construction Name] is required but was blank
   ************* IDF Context for following error/warning message:
   ************* Note -- lines truncated at 300 characters, if necessary...
   *************    761 BuildingSurface:Detailed,
   ************* indicated Name=E-01_117-E-W-288
   ************* Only last 3 lines before error line shown.....
   *************    762   E-01_117-E-W-288,                       !- Name
   *************    763   Wall,                                   !- Surface Type
   *************    764   ,                                       !- Construction Name
   ** Severe  ** IP: IDF line~764 Error detected in Object=BUILDINGSURFACE:DETAILED, name=E-01_117-E-W-288
   **   ~~~   ** Field [Construction Name] is required but was blank
   ************* IDF Context for following error/warning message:
   ************* Note -- lines truncated at 300 characters, if necessary...
   *************    777 FenestrationSurface:Detailed,
   ************* indicated Name=E-01_117-E-W-288-W-1
   ************* Only last 3 lines before error line shown.....
   *************    778   E-01_117-E-W-288-W-1,                   !- Name
   *************    779   Window,                                 !- Surface Type
   *************    780   ,                                       !- Construction Name
   ** Severe  ** IP: IDF line~780 Error detected in Object=FENESTRATIONSURFACE:DETAILED, name=E-01_117-E-W-288-W-1
   **   ~~~   ** Field [Construction Name] is required but was blank
   ************* IDF Context for following error/warning message:
   ************* Note -- lines truncated at 300 characters, if necessary...
   *************    793 FenestrationSurface:Detailed,
   ************* indicated Name=E-01_117-E-W-288-W-2
   ************* Only last 3 lines before error line shown.....
   *************    794   E-01_117-E-W-288-W-2,                   !- Name
   *************    795   Window,                                 !- Surface Type
   *************    796   ,                                       !- Construction Name
   ** Severe  ** IP: IDF line~796 Error detected in Object=FENESTRATIONSURFACE:DETAILED, name=E-01_117-E-W-288-W-2
   **   ~~~   ** Field [Construction Name] is required but was blank
   ************* IDF Context for following error/warning message:
   ************* Note -- lines truncated at 300 characters, if necessary...
   *************    809 FenestrationSurface:Detailed,
   ************* indicated Name=E-01_117-E-W-288-W-3
   ************* Only last 3 lines before error line shown.....
   *************    810   E-01_117-E-W-288-W-3,                   !- Name
   *************    811   Window,                                 !- Surface Type
   *************    812   ,                                       !- Construction Name
   ** Severe  ** IP: IDF line~812 Error detected in Object=FENESTRATIONSURFACE:DETAILED, name=E-01_117-E-W-288-W-3
   **   ~~~   ** Field [Construction Name] is required but was blank
   ************* IDF Context for following error/warning message:
   ************* Note -- lines truncated at 300 characters, if necessary...
   *************    825 FenestrationSurface:Detailed,
   ************* indicated Name=E-01_117-E-W-288-W-4
   ************* Only last 3 lines before error line shown.....
   *************    826   E-01_117-E-W-288-W-4,                   !- Name
   *************    827   Window,                                 !- Surface Type
   *************    828   ,                                       !- Construction Name
   ** Severe  ** IP: IDF line~828 Error detected in Object=FENESTRATIONSURFACE:DETAILED, name=E-01_117-E-W-288-W-4
   **   ~~~   ** Field [Construction Name] is required but was blank
   ************* IDF Context for following error/warning message:
   ************* Note -- lines truncated at 300 characters, if necessary...
   *************    841 BuildingSurface:Detailed,
   ************* indicated Name=E-02_114-E-W-405
   ************* Only last 3 lines before error line shown.....
   *************    842   E-02_114-E-W-405,                       !- Name
   *************    843   Wall,                                   !- Surface Type
   *************    844   ,                                       !- Construction Name
   ** Severe  ** IP: IDF line~844 Error detected in Object=BUILDINGSURFACE:DETAILED, name=E-02_114-E-W-405
   **   ~~~   ** Field [Construction Name] is required but was blank
   ************* IDF Context for following error/warning message:
   ************* Note -- lines truncated at 300 characters, if necessary...
   *************    857 FenestrationSurface:Detailed,
   ************* indicated Name=E-02_114-E-W-405-W-1
   ************* Only last 3 lines before error line shown.....
   *************    858   E-02_114-E-W-405-W-1,                   !- Name
   *************    859   Window,                                 !- Surface Type
   *************    860   ,                                       !- Construction Name
   ** Severe  ** IP: IDF line~860 Error detected in Object=FENESTRATIONSURFACE:DETAILED, name=E-02_114-E-W-405-W-1
   **   ~~~   ** Field [Construction Name] is required but was blank
   ************* IDF Context for following error/warning message:
   ************* Note -- lines truncated at 300 characters, if necessary...
   *************    873 FenestrationSurface:Detailed,
   ************* indicated Name=E-02_114-E-W-405-W-2
   ************* Only last 3 lines before error line shown.....
   *************    874   E-02_114-E-W-405-W-2,                   !- Name
   *************    875   Window,                                 !- Surface Type
   *************    876   ,                                       !- Construction Name
   ** Severe  ** IP: IDF line~876 Error detected in Object=FENESTRATIONSURFACE:DETAILED, name=E-02_114-E-W-405-W-2
   **   ~~~   ** Field [Construction Name] is required but was blank
   ************* IDF Context for following error/warning message:
   ************* Note -- lines truncated at 300 characters, if necessary...
   *************    889 FenestrationSurface:Detailed,
   ************* indicated Name=E-02_114-E-W-405-W-3
   ************* Only last 3 lines before error line shown.....
   *************    890   E-02_114-E-W-405-W-3,                   !- Name
   *************    891   Window,                                 !- Surface Type
   *************    892   ,                                       !- Construction Name
   ** Severe  ** IP: IDF line~892 Error detected in Object=FENESTRATIONSURFACE:DETAILED, name=E-02_114-E-W-405-W-3
   **   ~~~   ** Field [Construction Name] is required but was blank
   ************* IDF Context for following error/warning message:
   ************* Note -- lines truncated at 300 characters, if necessary...
   *************    905 FenestrationSurface:Detailed,
   ************* indicated Name=E-02_114-E-W-405-W-4
   ************* Only last 3 lines before error line shown.....
   *************    906   E-02_114-E-W-405-W-4,                   !- Name
   *************    907   Window,                                 !- Surface Type
   *************    908   ,                                       !- Construction Name
   ** Severe  ** IP: IDF line~908 Error detected in Object=FENESTRATIONSURFACE:DETAILED, name=E-02_114-E-W-405-W-4
   **   ~~~   ** Field [Construction Name] is required but was blank
   ************* IDF Context for following error/warning message:
   ************* Note -- lines truncated at 300 characters, if necessary...
   *************    921 BuildingSurface:Detailed,
   ************* indicated Name=E-02_115-E-W-411
   ************* Only last 3 lines before error line shown.....
   *************    922   E-02_115-E-W-411,                       !- Name
   *************    923   Wall,                                   !- Surface Type
   *************    924   ,                                       !- Construction Name
   ** Severe  ** IP: IDF line~924 Error detected in Object=BUILDINGSURFACE:DETAILED, name=E-02_115-E-W-411
   **   ~~~   ** Field [Construction Name] is required but was blank
   ************* IDF Context for following error/warning message:
   ************* Note -- lines truncated at 300 characters, if necessary...
   *************    937 FenestrationSurface:Detailed,
   ************* indicated Name=E-02_115-E-W-411-W-1
   ************* Only last 3 lines before error line shown.....
   *************    938   E-02_115-E-W-411-W-1,                   !- Name
   *************    939   Window,                                 !- Surface Type
   *************    940   ,                                       !- Construction Name
   ** Severe  ** IP: IDF line~940 Error detected in Object=FENESTRATIONSURFACE:DETAILED, name=E-02_115-E-W-411-W-1
   **   ~~~   ** Field [Construction Name] is required but was blank
   ************* IDF Context for following error/warning message:
   ************* Note -- lines truncated at 300 characters, if necessary...
   *************    953 FenestrationSurface:Detailed,
   ************* indicated Name=E-02_115-E-W-411-W-2
   ************* Only last 3 lines before error line shown.....
   *************    954   E-02_115-E-W-411-W-2,                   !- Name
   *************    955   Window,                                 !- Surface Type
   *************    956   ,                                       !- Construction Name
   ** Severe  ** IP: IDF line~956 Error detected in Object=FENESTRATIONSURFACE:DETAILED, name=E-02_115-E-W-411-W-2
   **   ~~~   ** Field [Construction Name] is required but was blank
   ************* IDF Context for following error/warning message:
   ************* Note -- lines truncated at 300 characters, if necessary...
   *************    969 FenestrationSurface:Detailed,
   ************* indicated Name=E-02_115-E-W-411-W-3
   ************* Only last 3 lines before error line shown.....
   *************    970   E-02_115-E-W-411-W-3,                   !- Name
   *************    971   Window,                                 !- Surface Type
   *************    972   ,                                       !- Construction Name
   ** Severe  ** IP: IDF line~972 Error detected in Object=FENESTRATIONSURFACE:DETAILED, name=E-02_115-E-W-411-W-3
   **   ~~~   ** Field [Construction Name] is required but was blank
   ************* IDF Context for following error/warning message:
   ************* Note -- lines truncated at 300 characters, if necessary...
   *************    985 FenestrationSurface:Detailed,
   ************* indicated Name=E-02_115-E-W-411-W-4
   ************* Only last 3 lines before error line shown.....
   *************    986   E-02_115-E-W-411-W-4,                   !- Name
   *************    987   Window,                                 !- Surface Type
   *************    988   ,                                       !- Construction Name
   ** Severe  ** IP: IDF line~988 Error detected in Object=FENESTRATIONSURFACE:DETAILED, name=E-02_115-E-W-411-W-4
   **   ~~~   ** Field [Construction Name] is required but was blank
   ************* IDF Context for following error/warning message:
   ************* Note -- lines truncated at 300 characters, if necessary...
   *************   1001 FenestrationSurface:Detailed,
   ************* indicated Name=E-02_115-E-W-411-W-5
   ************* Only last 3 lines before error line shown.....
   *************   1002   E-02_115-E-W-411-W-5,                   !- Name
   *************   1003   Window,                                 !- Surface Type
   *************   1004   ,                                       !- Construction Name
   ** Severe  ** IP: IDF line~1004 Error detected in Object=FENESTRATIONSURFACE:DETAILED, name=E-02_115-E-W-411-W-5
   **   ~~~   ** Field [Construction Name] is required but was blank
   ************* IDF Context for following error/warning message:
   ************* Note -- lines truncated at 300 characters, if necessary...
   *************   1017 FenestrationSurface:Detailed,
   ************* indicated Name=E-02_115-E-W-411-W-6
   ************* Only last 3 lines before error line shown.....
   *************   1018   E-02_115-E-W-411-W-6,                   !- Name
   *************   1019   Window,                                 !- Surface Type
   *************   1020   ,                                       !- Construction Name
   ** Severe  ** IP: IDF line~1020 Error detected in Object=FENESTRATIONSURFACE:DETAILED, name=E-02_115-E-W-411-W-6
   **   ~~~   ** Field [Construction Name] is required but was blank
   ************* IDF Context for following error/warning message:
   ************* Note -- lines truncated at 300 characters, if necessary...
   *************   1033 BuildingSurface:Detailed,
   ************* indicated Name=E-B1_104-E-W-445
   ************* Only last 3 lines before error line shown.....
   *************   1034   E-B1_104-E-W-445,                       !- Name
   *************   1035   Wall,                                   !- Surface Type
   *************   1036   ,                                       !- Construction Name
   ** Severe  ** IP: IDF line~1036 Error detected in Object=BUILDINGSURFACE:DETAILED, name=E-B1_104-E-W-445
   **   ~~~   ** Field [Construction Name] is required but was blank
   ************* IDF Context for following error/warning message:
   ************* Note -- lines truncated at 300 characters, if necessary...
   *************   1049 BuildingSurface:Detailed,
   ************* indicated Name=E-B1_105-E-W-459
   ************* Only last 3 lines before error line shown.....
   *************   1050   E-B1_105-E-W-459,                       !- Name
   *************   1051   Wall,                                   !- Surface Type
   *************   1052   ,                                       !- Construction Name
   ** Severe  ** IP: IDF line~1052 Error detected in Object=BUILDINGSURFACE:DETAILED, name=E-B1_105-E-W-459
   **   ~~~   ** Field [Construction Name] is required but was blank
   ************* IDF Context for following error/warning message:
   ************* Note -- lines truncated at 300 characters, if necessary...
   *************   1065 BuildingSurface:Detailed,
   ************* indicated Name=E-B1_106-E-W-462
   ************* Only last 3 lines before error line shown.....
   *************   1066   E-B1_106-E-W-462,                       !- Name
   *************   1067   Wall,                                   !- Surface Type
   *************   1068   ,                                       !- Construction Name
   ** Severe  ** IP: IDF line~1068 Error detected in Object=BUILDINGSURFACE:DETAILED, name=E-B1_106-E-W-462
   **   ~~~   ** Field [Construction Name] is required but was blank
   ************* IDF Context for following error/warning message:
   ************* Note -- lines truncated at 300 characters, if necessary...
   *************   1081 BuildingSurface:Detailed,
   ************* indicated Name=E-RF_100-E-W-482
   ************* Only last 3 lines before error line shown.....
   *************   1082   E-RF_100-E-W-482,                       !- Name
   *************   1083   Wall,                                   !- Surface Type
   *************   1084   ,                                       !- Construction Name
   ** Severe  ** IP: IDF line~1084 Error detected in Object=BUILDINGSURFACE:DETAILED, name=E-RF_100-E-W-482
   **   ~~~   ** Field [Construction Name] is required but was blank
   ************* IDF Context for following error/warning message:
   ************* Note -- lines truncated at 300 characters, if necessary...
   *************   1097 BuildingSurface:Detailed,
   ************* indicated Name=N-00_101-E-W-7
   ************* Only last 3 lines before error line shown.....
   *************   1098   N-00_101-E-W-7,                         !- Name
   *************   1099   Wall,                                   !- Surface Type
   *************   1100   ,                                       !- Construction Name
   ** Severe  ** IP: IDF line~1100 Error detected in Object=BUILDINGSURFACE:DETAILED, name=N-00_101-E-W-7
   **   ~~~   ** Field [Construction Name] is required but was blank
   ************* IDF Context for following error/warning message:
   ************* Note -- lines truncated at 300 characters, if necessary...
   *************   1113 FenestrationSurface:Detailed,
   ************* indicated Name=N-00_101-E-W-7-D-1
   ************* Only last 3 lines before error line shown.....
   *************   1114   N-00_101-E-W-7-D-1,                     !- Name
   *************   1115   GlassDoor,                              !- Surface Type
   *************   1116   ,                                       !- Construction Name
   ** Severe  ** IP: IDF line~1116 Error detected in Object=FENESTRATIONSURFACE:DETAILED, name=N-00_101-E-W-7-D-1
   **   ~~~   ** Field [Construction Name] is required but was blank
   ************* IDF Context for following error/warning message:
   ************* Note -- lines truncated at 300 characters, if necessary...
   *************   1129 BuildingSurface:Detailed,
   ************* indicated Name=N-00_102-E-W-16
   ************* Only last 3 lines before error line shown.....
   *************   1130   N-00_102-E-W-16,                        !- Name
   *************   1131   Wall,                                   !- Surface Type
   *************   1132   ,                                       !- Construction Name
   ** Severe  ** IP: IDF line~1132 Error detected in Object=BUILDINGSURFACE:DETAILED, name=N-00_102-E-W-16
   **   ~~~   ** Field [Construction Name] is required but was blank
   ************* IDF Context for following error/warning message:
   ************* Note -- lines truncated at 300 characters, if necessary...
   *************   1145 BuildingSurface:Detailed,
   ************* indicated Name=N-00_103-E-W-22
   ************* Only last 3 lines before error line shown.....
   *************   1146   N-00_103-E-W-22,                        !- Name
   *************   1147   Wall,                                   !- Surface Type
   *************   1148   ,                                       !- Construction Name
   ** Severe  ** IP: IDF line~1148 Error detected in Object=BUILDINGSURFACE:DETAILED, name=N-00_103-E-W-22
   **   ~~~   ** Field [Construction Name] is required but was blank
   ************* IDF Context for following error/warning message:
   ************* Note -- lines truncated at 300 characters, if necessary...
   *************   1161 FenestrationSurface:Detailed,
   ************* indicated Name=N-00_103-E-W-22-D-1
   ************* Only last 3 lines before error line shown.....
   *************   1162   N-00_103-E-W-22-D-1,                    !- Name
   *************   1163   GlassDoor,                              !- Surface Type
   *************   1164   ,                                       !- Construction Name
   ** Severe  ** IP: IDF line~1164 Error detected in Object=FENESTRATIONSURFACE:DETAILED, name=N-00_103-E-W-22-D-1
   **   ~~~   ** Field [Construction Name] is required but was blank
   ************* IDF Context for following error/warning message:
   ************* Note -- lines truncated at 300 characters, if necessary...
   *************   1177 FenestrationSurface:Detailed,
   ************* indicated Name=N-00_103-E-W-22-D-2
   ************* Only last 3 lines before error line shown.....
   *************   1178   N-00_103-E-W-22-D-2,                    !- Name
   *************   1179   GlassDoor,                              !- Surface Type
   *************   1180   ,                                       !- Construction Name
   ** Severe  ** IP: IDF line~1180 Error detected in Object=FENESTRATIONSURFACE:DETAILED, name=N-00_103-E-W-22-D-2
   **   ~~~   ** Field [Construction Name] is required but was blank
   ************* IDF Context for following error/warning message:
   ************* Note -- lines truncated at 300 characters, if necessary...
   *************   1193 BuildingSurface:Detailed,
   ************* indicated Name=N-00_106-E-W-35
   ************* Only last 3 lines before error line shown.....
   *************   1194   N-00_106-E-W-35,                        !- Name
   *************   1195   Wall,                                   !- Surface Type
   *************   1196   ,                                       !- Construction Name
   ** Severe  ** IP: IDF line~1196 Error detected in Object=BUILDINGSURFACE:DETAILED, name=N-00_106-E-W-35
   **   ~~~   ** Field [Construction Name] is required but was blank
   ************* IDF Context for following error/warning message:
   ************* Note -- lines truncated at 300 characters, if necessary...
   *************   1209 BuildingSurface:Detailed,
   ************* indicated Name=N-00_109-E-W-52
   ************* Only last 3 lines before error line shown.....
   *************   1210   N-00_109-E-W-52,                        !- Name
   *************   1211   Wall,                                   !- Surface Type
   *************   1212   ,                                       !- Construction Name
   ** Severe  ** IP: IDF line~1212 Error detected in Object=BUILDINGSURFACE:DETAILED, name=N-00_109-E-W-52
   **   ~~~   ** Field [Construction Name] is required but was blank
   ************* IDF Context for following error/warning message:
   ************* Note -- lines truncated at 300 characters, if necessary...
   *************   1225 FenestrationSurface:Detailed,
   ************* indicated Name=N-00_109-E-W-52-D-1
   ************* Only last 3 lines before error line shown.....
   *************   1226   N-00_109-E-W-52-D-1,                    !- Name
   *************   1227   GlassDoor,                              !- Surface Type
   *************   1228   ,                                       !- Construction Name
   ** Severe  ** IP: IDF line~1228 Error detected in Object=FENESTRATIONSURFACE:DETAILED, name=N-00_109-E-W-52-D-1
   **   ~~~   ** Field [Construction Name] is required but was blank
   ************* IDF Context for following error/warning message:
   ************* Note -- lines truncated at 300 characters, if necessary...
   *************   1241 FenestrationSurface:Detailed,
   ************* indicated Name=N-00_109-E-W-52-W-2
   ************* Only last 3 lines before error line shown.....
   *************   1242   N-00_109-E-W-52-W-2,                    !- Name
   *************   1243   Window,                                 !- Surface Type
   *************   1244   ,                                       !- Construction Name
   ** Severe  ** IP: IDF line~1244 Error detected in Object=FENESTRATIONSURFACE:DETAILED, name=N-00_109-E-W-52-W-2
   **   ~~~   ** Field [Construction Name] is required but was blank
   ************* IDF Context for following error/warning message:
   ************* Note -- lines truncated at 300 characters, if necessary...
   *************   1257 BuildingSurface:Detailed,
   ************* indicated Name=N-00_110-E-W-57
   ************* Only last 3 lines before error line shown.....
   *************   1258   N-00_110-E-W-57,                        !- Name
   *************   1259   Wall,                                   !- Surface Type
   *************   1260   ,                                       !- Construction Name
   ** Severe  ** IP: IDF line~1260 Error detected in Object=BUILDINGSURFACE:DETAILED, name=N-00_110-E-W-57
   **   ~~~   ** Field [Construction Name] is required but was blank
   ************* IDF Context for following error/warning message:
   ************* Note -- lines truncated at 300 characters, if necessary...
   *************   1273 FenestrationSurface:Detailed,
   ************* indicated Name=N-00_110-E-W-57-D-1
   ************* Only last 3 lines before error line shown.....
   *************   1274   N-00_110-E-W-57-D-1,                    !- Name
   *************   1275   GlassDoor,                              !- Surface Type
   *************   1276   ,                                       !- Construction Name
   ** Severe  ** IP: IDF line~1276 Error detected in Object=FENESTRATIONSURFACE:DETAILED, name=N-00_110-E-W-57-D-1
   **   ~~~   ** Field [Construction Name] is required but was blank
   ************* IDF Context for following error/warning message:
   ************* Note -- lines truncated at 300 characters, if necessary...
   *************   1289 FenestrationSurface:Detailed,
   ************* indicated Name=N-00_110-E-W-57-W-2
   ************* Only last 3 lines before error line shown.....
   *************   1290   N-00_110-E-W-57-W-2,                    !- Name
   *************   1291   Window,                                 !- Surface Type
   *************   1292   ,                                       !- Construction Name
   ** Severe  ** IP: IDF line~1292 Error detected in Object=FENESTRATIONSURFACE:DETAILED, name=N-00_110-E-W-57-W-2
   **   ~~~   ** Field [Construction Name] is required but was blank
   ************* IDF Context for following error/warning message:
   ************* Note -- lines truncated at 300 characters, if necessary...
   *************   1305 BuildingSurface:Detailed,
   ************* indicated Name=N-00_112-E-W-69
   ************* Only last 3 lines before error line shown.....
   *************   1306   N-00_112-E-W-69,                        !- Name
   *************   1307   Wall,                                   !- Surface Type
   *************   1308   ,                                       !- Construction Name
   ** Severe  ** IP: IDF line~1308 Error detected in Object=BUILDINGSURFACE:DETAILED, name=N-00_112-E-W-69
   **   ~~~   ** Field [Construction Name] is required but was blank
   ************* IDF Context for following error/warning message:
   ************* Note -- lines truncated at 300 characters, if necessary...
   *************   1321 FenestrationSurface:Detailed,
   ************* indicated Name=N-00_112-E-W-69-D-1
   ************* Only last 3 lines before error line shown.....
   *************   1322   N-00_112-E-W-69-D-1,                    !- Name
   *************   1323   GlassDoor,                              !- Surface Type
   *************   1324   ,                                       !- Construction Name
   ** Severe  ** IP: IDF line~1324 Error detected in Object=FENESTRATIONSURFACE:DETAILED, name=N-00_112-E-W-69-D-1
   **   ~~~   ** Field [Construction Name] is required but was blank
   ************* IDF Context for following error/warning message:
   ************* Note -- lines truncated at 300 characters, if necessary...
   *************   1337 FenestrationSurface:Detailed,
   ************* indicated Name=N-00_112-E-W-69-W-2
   ************* Only last 3 lines before error line shown.....
   *************   1338   N-00_112-E-W-69-W-2,                    !- Name
   *************   1339   Window,                                 !- Surface Type
   *************   1340   ,                                       !- Construction Name
   ** Severe  ** IP: IDF line~1340 Error detected in Object=FENESTRATIONSURFACE:DETAILED, name=N-00_112-E-W-69-W-2
   **   ~~~   ** Field [Construction Name] is required but was blank
   ************* IDF Context for following error/warning message:
   ************* Note -- lines truncated at 300 characters, if necessary...
   *************   1353 BuildingSurface:Detailed,
   ************* indicated Name=N-00_113-E-W-74
   ************* Only last 3 lines before error line shown.....
   *************   1354   N-00_113-E-W-74,                        !- Name
   *************   1355   Wall,                                   !- Surface Type
   *************   1356   ,                                       !- Construction Name
   ** Severe  ** IP: IDF line~1356 Error detected in Object=BUILDINGSURFACE:DETAILED, name=N-00_113-E-W-74
   **   ~~~   ** Field [Construction Name] is required but was blank
   ************* IDF Context for following error/warning message:
   ************* Note -- lines truncated at 300 characters, if necessary...
   *************   1369 FenestrationSurface:Detailed,
   ************* indicated Name=N-00_113-E-W-74-D-1
   ************* Only last 3 lines before error line shown.....
   *************   1370   N-00_113-E-W-74-D-1,                    !- Name
   *************   1371   GlassDoor,                              !- Surface Type
   *************   1372   ,                                       !- Construction Name
   ** Severe  ** IP: IDF line~1372 Error detected in Object=FENESTRATIONSURFACE:DETAILED, name=N-00_113-E-W-74-D-1
   **   ~~~   ** Field [Construction Name] is required but was blank
   ************* IDF Context for following error/warning message:
   ************* Note -- lines truncated at 300 characters, if necessary...
   *************   1385 FenestrationSurface:Detailed,
   ************* indicated Name=N-00_113-E-W-74-W-2
   ************* Only last 3 lines before error line shown.....
   *************   1386   N-00_113-E-W-74-W-2,                    !- Name
   *************   1387   Window,                                 !- Surface Type
   *************   1388   ,                                       !- Construction Name
   ** Severe  ** IP: IDF line~1388 Error detected in Object=FENESTRATIONSURFACE:DETAILED, name=N-00_113-E-W-74-W-2
   **   ~~~   ** Field [Construction Name] is required but was blank
   ************* IDF Context for following error/warning message:
   ************* Note -- lines truncated at 300 characters, if necessary...
   *************   1401 FenestrationSurface:Detailed,
   ************* indicated Name=N-00_113-E-W-74-W-3
   ************* Only last 3 lines before error line shown.....
   *************   1402   N-00_113-E-W-74-W-3,                    !- Name
   *************   1403   Window,                                 !- Surface Type
   *************   1404   ,                                       !- Construction Name
   ** Severe  ** IP: IDF line~1404 Error detected in Object=FENESTRATIONSURFACE:DETAILED, name=N-00_113-E-W-74-W-3
   **   ~~~   ** Field [Construction Name] is required but was blank
   ************* IDF Context for following error/warning message:
   ************* Note -- lines truncated at 300 characters, if necessary...
   *************   1417 BuildingSurface:Detailed,
   ************* indicated Name=N-00_128-E-W-182
   ************* Only last 3 lines before error line shown.....
   *************   1418   N-00_128-E-W-182,                       !- Name
   *************   1419   Wall,                                   !- Surface Type
   *************   1420   ,                                       !- Construction Name
   ** Severe  ** IP: IDF line~1420 Error detected in Object=BUILDINGSURFACE:DETAILED, name=N-00_128-E-W-182
   **   ~~~   ** Field [Construction Name] is required but was blank
   ************* IDF Context for following error/warning message:
   ************* Note -- lines truncated at 300 characters, if necessary...
   *************   1433 FenestrationSurface:Detailed,
   ************* indicated Name=N-00_128-E-W-182-W-1
   ************* Only last 3 lines before error line shown.....
   *************   1434   N-00_128-E-W-182-W-1,                   !- Name
   *************   1435   Window,                                 !- Surface Type
   *************   1436   ,                                       !- Construction Name
   ** Severe  ** IP: IDF line~1436 Error detected in Object=FENESTRATIONSURFACE:DETAILED, name=N-00_128-E-W-182-W-1
   **   ~~~   ** Field [Construction Name] is required but was blank
   ************* IDF Context for following error/warning message:
   ************* Note -- lines truncated at 300 characters, if necessary...
   *************   1449 BuildingSurface:Detailed,
   ************* indicated Name=N-01_110-E-W-260
   ************* Only last 3 lines before error line shown.....
   *************   1450   N-01_110-E-W-260,                       !- Name
   *************   1451   Wall,                                   !- Surface Type
   *************   1452   ,                                       !- Construction Name
   ** Severe  ** IP: IDF line~1452 Error detected in Object=BUILDINGSURFACE:DETAILED, name=N-01_110-E-W-260
   **   ~~~   ** Field [Construction Name] is required but was blank
   ************* IDF Context for following error/warning message:
   ************* Note -- lines truncated at 300 characters, if necessary...
   *************   1465 BuildingSurface:Detailed,
   ************* indicated Name=N-01_111-E-W-264
   ************* Only last 3 lines before error line shown.....
   *************   1466   N-01_111-E-W-264,                       !- Name
   *************   1467   Wall,                                   !- Surface Type
   *************   1468   ,                                       !- Construction Name
   ** Severe  ** IP: IDF line~1468 Error detected in Object=BUILDINGSURFACE:DETAILED, name=N-01_111-E-W-264
   **   ~~~   ** Field [Construction Name] is required but was blank
   ************* IDF Context for following error/warning message:
   ************* Note -- lines truncated at 300 characters, if necessary...
   *************   1481 BuildingSurface:Detailed,
   ************* indicated Name=N-01_112-E-W-267
   ************* Only last 3 lines before error line shown.....
   *************   1482   N-01_112-E-W-267,                       !- Name
   *************   1483   Wall,                                   !- Surface Type
   *************   1484   ,                                       !- Construction Name
   ** Severe  ** IP: IDF line~1484 Error detected in Object=BUILDINGSURFACE:DETAILED, name=N-01_112-E-W-267
   **   ~~~   ** Field [Construction Name] is required but was blank
   ************* IDF Context for following error/warning message:
   ************* Note -- lines truncated at 300 characters, if necessary...
   *************   1497 BuildingSurface:Detailed,
   ************* indicated Name=N-01_113-E-W-270
   ************* Only last 3 lines before error line shown.....
   *************   1498   N-01_113-E-W-270,                       !- Name
   *************   1499   Wall,                                   !- Surface Type
   *************   1500   ,                                       !- Construction Name
   ** Severe  ** IP: IDF line~1500 Error detected in Object=BUILDINGSURFACE:DETAILED, name=N-01_113-E-W-270
   **   ~~~   ** Field [Construction Name] is required but was blank
   ************* IDF Context for following error/warning message:
   ************* Note -- lines truncated at 300 characters, if necessary...
   *************   1513 BuildingSurface:Detailed,
   ************* indicated Name=N-01_114-E-W-273
   ************* Only last 3 lines before error line shown.....
   *************   1514   N-01_114-E-W-273,                       !- Name
   *************   1515   Wall,                                   !- Surface Type
   *************   1516   ,                                       !- Construction Name
   ** Severe  ** IP: IDF line~1516 Error detected in Object=BUILDINGSURFACE:DETAILED, name=N-01_114-E-W-273
   **   ~~~   ** Field [Construction Name] is required but was blank
   ************* IDF Context for following error/warning message:
   ************* Note -- lines truncated at 300 characters, if necessary...
   *************   1529 BuildingSurface:Detailed,
   ************* indicated Name=N-01_115-E-W-276
   ************* Only last 3 lines before error line shown.....
   *************   1530   N-01_115-E-W-276,                       !- Name
   *************   1531   Wall,                                   !- Surface Type
   *************   1532   ,                                       !- Construction Name
   ** Severe  ** IP: IDF line~1532 Error detected in Object=BUILDINGSURFACE:DETAILED, name=N-01_115-E-W-276
   **   ~~~   ** Field [Construction Name] is required but was blank
   ************* IDF Context for following error/warning message:
   ************* Note -- lines truncated at 300 characters, if necessary...
   *************   1545 FenestrationSurface:Detailed,
   ************* indicated Name=N-01_115-E-W-276-W-1
   ************* Only last 3 lines before error line shown.....
   *************   1546   N-01_115-E-W-276-W-1,                   !- Name
   *************   1547   Window,                                 !- Surface Type
   *************   1548   ,                                       !- Construction Name
   ** Severe  ** IP: IDF line~1548 Error detected in Object=FENESTRATIONSURFACE:DETAILED, name=N-01_115-E-W-276-W-1
   **   ~~~   ** Field [Construction Name] is required but was blank
   ************* IDF Context for following error/warning message:
   ************* Note -- lines truncated at 300 characters, if necessary...
   *************   1561 FenestrationSurface:Detailed,
   ************* indicated Name=N-01_115-E-W-276-W-2
   ************* Only last 3 lines before error line shown.....
   *************   1562   N-01_115-E-W-276-W-2,                   !- Name
   *************   1563   Window,                                 !- Surface Type
   *************   1564   ,                                       !- Construction Name
   ** Severe  ** IP: IDF line~1564 Error detected in Object=FENESTRATIONSURFACE:DETAILED, name=N-01_115-E-W-276-W-2
   **   ~~~   ** Field [Construction Name] is required but was blank
   ************* IDF Context for following error/warning message:
   ************* Note -- lines truncated at 300 characters, if necessary...
   *************   1577 FenestrationSurface:Detailed,
   ************* indicated Name=N-01_115-E-W-276-W-3
   ************* Only last 3 lines before error line shown.....
   *************   1578   N-01_115-E-W-276-W-3,                   !- Name
   *************   1579   Window,                                 !- Surface Type
   *************   1580   ,                                       !- Construction Name
   ** Severe  ** IP: IDF line~1580 Error detected in Object=FENESTRATIONSURFACE:DETAILED, name=N-01_115-E-W-276-W-3
   **   ~~~   ** Field [Construction Name] is required but was blank
   ************* IDF Context for following error/warning message:
   ************* Note -- lines truncated at 300 characters, if necessary...
   *************   1593 BuildingSurface:Detailed,
   ************* indicated Name=N-01_116-E-W-283
   ************* Only last 3 lines before error line shown.....
   *************   1594   N-01_116-E-W-283,                       !- Name
   *************   1595   Wall,                                   !- Surface Type
   *************   1596   ,                                       !- Construction Name
   ** Severe  ** IP: IDF line~1596 Error detected in Object=BUILDINGSURFACE:DETAILED, name=N-01_116-E-W-283
   **   ~~~   ** Field [Construction Name] is required but was blank
   ************* IDF Context for following error/warning message:
   ************* Note -- lines truncated at 300 characters, if necessary...
   *************   1609 FenestrationSurface:Detailed,
   ************* indicated Name=N-01_116-E-W-283-W-1
   ************* Only last 3 lines before error line shown.....
   *************   1610   N-01_116-E-W-283-W-1,                   !- Name
   *************   1611   Window,                                 !- Surface Type
   *************   1612   ,                                       !- Construction Name
   ** Severe  ** IP: IDF line~1612 Error detected in Object=FENESTRATIONSURFACE:DETAILED, name=N-01_116-E-W-283-W-1
   **   ~~~   ** Field [Construction Name] is required but was blank
   ************* IDF Context for following error/warning message:
   ************* Note -- lines truncated at 300 characters, if necessary...
   *************   1625 FenestrationSurface:Detailed,
   ************* indicated Name=N-01_116-E-W-283-W-2
   ************* Only last 3 lines before error line shown.....
   *************   1626   N-01_116-E-W-283-W-2,                   !- Name
   *************   1627   Window,                                 !- Surface Type
   *************   1628   ,                                       !- Construction Name
   ** Severe  ** IP: IDF line~1628 Error detected in Object=FENESTRATIONSURFACE:DETAILED, name=N-01_116-E-W-283-W-2
   **   ~~~   ** Field [Construction Name] is required but was blank
   ************* IDF Context for following error/warning message:
   ************* Note -- lines truncated at 300 characters, if necessary...
   *************   1641 FenestrationSurface:Detailed,
   ************* indicated Name=N-01_116-E-W-283-W-3
   ************* Only last 3 lines before error line shown.....
   *************   1642   N-01_116-E-W-283-W-3,                   !- Name
   *************   1643   Window,                                 !- Surface Type
   *************   1644   ,                                       !- Construction Name
   ** Severe  ** IP: IDF line~1644 Error detected in Object=FENESTRATIONSURFACE:DETAILED, name=N-01_116-E-W-283-W-3
   **   ~~~   ** Field [Construction Name] is required but was blank
   ************* IDF Context for following error/warning message:
   ************* Note -- lines truncated at 300 characters, if necessary...
   *************   1657 FenestrationSurface:Detailed,
   ************* indicated Name=N-01_116-E-W-283-W-4
   ************* Only last 3 lines before error line shown.....
   *************   1658   N-01_116-E-W-283-W-4,                   !- Name
   *************   1659   Window,                                 !- Surface Type
   *************   1660   ,                                       !- Construction Name
   ** Severe  ** IP: IDF line~1660 Error detected in Object=FENESTRATIONSURFACE:DETAILED, name=N-01_116-E-W-283-W-4
   **   ~~~   ** Field [Construction Name] is required but was blank
   ************* IDF Context for following error/warning message:
   ************* Note -- lines truncated at 300 characters, if necessary...
   *************   1673 BuildingSurface:Detailed,
   ************* indicated Name=N-01_118-E-W-297
   ************* Only last 3 lines before error line shown.....
   *************   1674   N-01_118-E-W-297,                       !- Name
   *************   1675   Wall,                                   !- Surface Type
   *************   1676   ,                                       !- Construction Name
   ** Severe  ** IP: IDF line~1676 Error detected in Object=BUILDINGSURFACE:DETAILED, name=N-01_118-E-W-297
   **   ~~~   ** Field [Construction Name] is required but was blank
   ************* IDF Context for following error/warning message:
   ************* Note -- lines truncated at 300 characters, if necessary...
   *************   1689 FenestrationSurface:Detailed,
   ************* indicated Name=N-01_118-E-W-297-W-1
   ************* Only last 3 lines before error line shown.....
   *************   1690   N-01_118-E-W-297-W-1,                   !- Name
   *************   1691   Window,                                 !- Surface Type
   *************   1692   ,                                       !- Construction Name
   ** Severe  ** IP: IDF line~1692 Error detected in Object=FENESTRATIONSURFACE:DETAILED, name=N-01_118-E-W-297-W-1
   **   ~~~   ** Field [Construction Name] is required but was blank
   ************* IDF Context for following error/warning message:
   ************* Note -- lines truncated at 300 characters, if necessary...
   *************   1705 FenestrationSurface:Detailed,
   ************* indicated Name=N-01_118-E-W-297-W-2
   ************* Only last 3 lines before error line shown.....
   *************   1706   N-01_118-E-W-297-W-2,                   !- Name
   *************   1707   Window,                                 !- Surface Type
   *************   1708   ,                                       !- Construction Name
   ** Severe  ** IP: IDF line~1708 Error detected in Object=FENESTRATIONSURFACE:DETAILED, name=N-01_118-E-W-297-W-2
   **   ~~~   ** Field [Construction Name] is required but was blank
   ************* IDF Context for following error/warning message:
   ************* Note -- lines truncated at 300 characters, if necessary...
   *************   1721 FenestrationSurface:Detailed,
   ************* indicated Name=N-01_118-E-W-297-W-3
   ************* Only last 3 lines before error line shown.....
   *************   1722   N-01_118-E-W-297-W-3,                   !- Name
   *************   1723   Window,                                 !- Surface Type
   *************   1724   ,                                       !- Construction Name
   ** Severe  ** IP: IDF line~1724 Error detected in Object=FENESTRATIONSURFACE:DETAILED, name=N-01_118-E-W-297-W-3
   **   ~~~   ** Field [Construction Name] is required but was blank
   ************* IDF Context for following error/warning message:
   ************* Note -- lines truncated at 300 characters, if necessary...
   *************   1737 BuildingSurface:Detailed,
   ************* indicated Name=N-02_103-E-W-343
   ************* Only last 3 lines before error line shown.....
   *************   1738   N-02_103-E-W-343,                       !- Name
   *************   1739   Wall,                                   !- Surface Type
   *************   1740   ,                                       !- Construction Name
   ** Severe  ** IP: IDF line~1740 Error detected in Object=BUILDINGSURFACE:DETAILED, name=N-02_103-E-W-343
   **   ~~~   ** Field [Construction Name] is required but was blank
   ************* IDF Context for following error/warning message:
   ************* Note -- lines truncated at 300 characters, if necessary...
   *************   1753 BuildingSurface:Detailed,
   ************* indicated Name=N-02_106-E-W-359
   ************* Only last 3 lines before error line shown.....
   *************   1754   N-02_106-E-W-359,                       !- Name
   *************   1755   Wall,                                   !- Surface Type
   *************   1756   ,                                       !- Construction Name
   ** Severe  ** IP: IDF line~1756 Error detected in Object=BUILDINGSURFACE:DETAILED, name=N-02_106-E-W-359
   **   ~~~   ** Field [Construction Name] is required but was blank
   ************* IDF Context for following error/warning message:
   ************* Note -- lines truncated at 300 characters, if necessary...
   *************   1769 FenestrationSurface:Detailed,
   ************* indicated Name=N-02_106-E-W-359-W-1
   ************* Only last 3 lines before error line shown.....
   *************   1770   N-02_106-E-W-359-W-1,                   !- Name
   *************   1771   Window,                                 !- Surface Type
   *************   1772   ,                                       !- Construction Name
   ** Severe  ** IP: IDF line~1772 Error detected in Object=FENESTRATIONSURFACE:DETAILED, name=N-02_106-E-W-359-W-1
   **   ~~~   ** Field [Construction Name] is required but was blank
   ************* IDF Context for following error/warning message:
   ************* Note -- lines truncated at 300 characters, if necessary...
   *************   1785 FenestrationSurface:Detailed,
   ************* indicated Name=N-02_106-E-W-359-W-2
   ************* Only last 3 lines before error line shown.....
   *************   1786   N-02_106-E-W-359-W-2,                   !- Name
   *************   1787   Window,                                 !- Surface Type
   *************   1788   ,                                       !- Construction Name
   ** Severe  ** IP: IDF line~1788 Error detected in Object=FENESTRATIONSURFACE:DETAILED, name=N-02_106-E-W-359-W-2
   **   ~~~   ** Field [Construction Name] is required but was blank
   ************* IDF Context for following error/warning message:
   ************* Note -- lines truncated at 300 characters, if necessary...
   *************   1801 FenestrationSurface:Detailed,
   ************* indicated Name=N-02_106-E-W-359-W-3
   ************* Only last 3 lines before error line shown.....
   *************   1802   N-02_106-E-W-359-W-3,                   !- Name
   *************   1803   Window,                                 !- Surface Type
   *************   1804   ,                                       !- Construction Name
   ** Severe  ** IP: IDF line~1804 Error detected in Object=FENESTRATIONSURFACE:DETAILED, name=N-02_106-E-W-359-W-3
   **   ~~~   ** Field [Construction Name] is required but was blank
   ************* IDF Context for following error/warning message:
   ************* Note -- lines truncated at 300 characters, if necessary...
   *************   1817 BuildingSurface:Detailed,
   ************* indicated Name=N-02_107-E-W-365
   ************* Only last 3 lines before error line shown.....
   *************   1818   N-02_107-E-W-365,                       !- Name
   *************   1819   Wall,                                   !- Surface Type
   *************   1820   ,                                       !- Construction Name
   ** Severe  ** IP: IDF line~1820 Error detected in Object=BUILDINGSURFACE:DETAILED, name=N-02_107-E-W-365
   **   ~~~   ** Field [Construction Name] is required but was blank
   ************* IDF Context for following error/warning message:
   ************* Note -- lines truncated at 300 characters, if necessary...
   *************   1833 FenestrationSurface:Detailed,
   ************* indicated Name=N-02_107-E-W-365-W-1
   ************* Only last 3 lines before error line shown.....
   *************   1834   N-02_107-E-W-365-W-1,                   !- Name
   *************   1835   Window,                                 !- Surface Type
   *************   1836   ,                                       !- Construction Name
   ** Severe  ** IP: IDF line~1836 Error detected in Object=FENESTRATIONSURFACE:DETAILED, name=N-02_107-E-W-365-W-1
   **   ~~~   ** Field [Construction Name] is required but was blank
   ************* IDF Context for following error/warning message:
   ************* Note -- lines truncated at 300 characters, if necessary...
   *************   1849 FenestrationSurface:Detailed,
   ************* indicated Name=N-02_107-E-W-365-W-2
   ************* Only last 3 lines before error line shown.....
   *************   1850   N-02_107-E-W-365-W-2,                   !- Name
   *************   1851   Window,                                 !- Surface Type
   *************   1852   ,                                       !- Construction Name
   ** Severe  ** IP: IDF line~1852 Error detected in Object=FENESTRATIONSURFACE:DETAILED, name=N-02_107-E-W-365-W-2
   **   ~~~   ** Field [Construction Name] is required but was blank
   ************* IDF Context for following error/warning message:
   ************* Note -- lines truncated at 300 characters, if necessary...
   *************   1865 FenestrationSurface:Detailed,
   ************* indicated Name=N-02_107-E-W-365-W-3
   ************* Only last 3 lines before error line shown.....
   *************   1866   N-02_107-E-W-365-W-3,                   !- Name
   *************   1867   Window,                                 !- Surface Type
   *************   1868   ,                                       !- Construction Name
   ** Severe  ** IP: IDF line~1868 Error detected in Object=FENESTRATIONSURFACE:DETAILED, name=N-02_107-E-W-365-W-3
   **   ~~~   ** Field [Construction Name] is required but was blank
   ************* IDF Context for following error/warning message:
   ************* Note -- lines truncated at 300 characters, if necessary...
   *************   1881 BuildingSurface:Detailed,
   ************* indicated Name=N-02_110-E-W-380
   ************* Only last 3 lines before error line shown.....
   *************   1882   N-02_110-E-W-380,                       !- Name
   *************   1883   Wall,                                   !- Surface Type
   *************   1884   ,                                       !- Construction Name
   ** Severe  ** IP: IDF line~1884 Error detected in Object=BUILDINGSURFACE:DETAILED, name=N-02_110-E-W-380
   **   ~~~   ** Field [Construction Name] is required but was blank
   ************* IDF Context for following error/warning message:
   ************* Note -- lines truncated at 300 characters, if necessary...
   *************   1897 BuildingSurface:Detailed,
   ************* indicated Name=N-02_111-E-W-384
   ************* Only last 3 lines before error line shown.....
   *************   1898   N-02_111-E-W-384,                       !- Name
   *************   1899   Wall,                                   !- Surface Type
   *************   1900   ,                                       !- Construction Name
   ** Severe  ** IP: IDF line~1900 Error detected in Object=BUILDINGSURFACE:DETAILED, name=N-02_111-E-W-384
   **   ~~~   ** Field [Construction Name] is required but was blank
   ************* IDF Context for following error/warning message:
   ************* Note -- lines truncated at 300 characters, if necessary...
   *************   1913 BuildingSurface:Detailed,
   ************* indicated Name=N-02_114-E-W-404
   ************* Only last 3 lines before error line shown.....
   *************   1914   N-02_114-E-W-404,                       !- Name
   *************   1915   Wall,                                   !- Surface Type
   *************   1916   ,                                       !- Construction Name
   ** Severe  ** IP: IDF line~1916 Error detected in Object=BUILDINGSURFACE:DETAILED, name=N-02_114-E-W-404
   **   ~~~   ** Field [Construction Name] is required but was blank
   ************* IDF Context for following error/warning message:
   ************* Note -- lines truncated at 300 characters, if necessary...
   *************   1929 FenestrationSurface:Detailed,
   ************* indicated Name=N-02_114-E-W-404-W-1
   ************* Only last 3 lines before error line shown.....
   *************   1930   N-02_114-E-W-404-W-1,                   !- Name
   *************   1931   Window,                                 !- Surface Type
   *************   1932   ,                                       !- Construction Name
   ** Severe  ** IP: IDF line~1932 Error detected in Object=FENESTRATIONSURFACE:DETAILED, name=N-02_114-E-W-404-W-1
   **   ~~~   ** Field [Construction Name] is required but was blank
   ************* IDF Context for following error/warning message:
   ************* Note -- lines truncated at 300 characters, if necessary...
   *************   1945 FenestrationSurface:Detailed,
   ************* indicated Name=N-02_114-E-W-404-W-10
   ************* Only last 3 lines before error line shown.....
   *************   1946   N-02_114-E-W-404-W-10,                  !- Name
   *************   1947   Window,                                 !- Surface Type
   *************   1948   ,                                       !- Construction Name
   ** Severe  ** IP: IDF line~1948 Error detected in Object=FENESTRATIONSURFACE:DETAILED, name=N-02_114-E-W-404-W-10
   **   ~~~   ** Field [Construction Name] is required but was blank
   ************* IDF Context for following error/warning message:
   ************* Note -- lines truncated at 300 characters, if necessary...
   *************   1961 FenestrationSurface:Detailed,
   ************* indicated Name=N-02_114-E-W-404-W-11
   ************* Only last 3 lines before error line shown.....
   *************   1962   N-02_114-E-W-404-W-11,                  !- Name
   *************   1963   Window,                                 !- Surface Type
   *************   1964   ,                                       !- Construction Name
   ** Severe  ** IP: IDF line~1964 Error detected in Object=FENESTRATIONSURFACE:DETAILED, name=N-02_114-E-W-404-W-11
   **   ~~~   ** Field [Construction Name] is required but was blank
   ************* IDF Context for following error/warning message:
   ************* Note -- lines truncated at 300 characters, if necessary...
   *************   1977 FenestrationSurface:Detailed,
   ************* indicated Name=N-02_114-E-W-404-W-12
   ************* Only last 3 lines before error line shown.....
   *************   1978   N-02_114-E-W-404-W-12,                  !- Name
   *************   1979   Window,                                 !- Surface Type
   *************   1980   ,                                       !- Construction Name
   ** Severe  ** IP: IDF line~1980 Error detected in Object=FENESTRATIONSURFACE:DETAILED, name=N-02_114-E-W-404-W-12
   **   ~~~   ** Field [Construction Name] is required but was blank
   ************* IDF Context for following error/warning message:
   ************* Note -- lines truncated at 300 characters, if necessary...
   *************   1993 FenestrationSurface:Detailed,
   ************* indicated Name=N-02_114-E-W-404-W-2
   ************* Only last 3 lines before error line shown.....
   *************   1994   N-02_114-E-W-404-W-2,                   !- Name
   *************   1995   Window,                                 !- Surface Type
   *************   1996   ,                                       !- Construction Name
   ** Severe  ** IP: IDF line~1996 Error detected in Object=FENESTRATIONSURFACE:DETAILED, name=N-02_114-E-W-404-W-2
   **   ~~~   ** Field [Construction Name] is required but was blank
[...]
   ************* indicated Name=W-00_118-E-W-110
   ************* Only last 3 lines before error line shown.....
   *************   4090   W-00_118-E-W-110,                       !- Name
   *************   4091   Wall,                                   !- Surface Type
   *************   4092   ,                                       !- Construction Name
   ** Severe  ** IP: IDF line~4092 Error detected in Object=BUILDINGSURFACE:DETAILED, name=W-00_118-E-W-110
   **   ~~~   ** Field [Construction Name] is required but was blank
   ************* IDF Context for following error/warning message:
   ************* Note -- lines truncated at 300 characters, if necessary...
   *************   4105 FenestrationSurface:Detailed,
   ************* indicated Name=W-00_118-E-W-110-W-1
   ************* Only last 3 lines before error line shown.....
   *************   4106   W-00_118-E-W-110-W-1,                   !- Name
   *************   4107   Window,                                 !- Surface Type
   *************   4108   ,                                       !- Construction Name
   ** Severe  ** IP: IDF line~4108 Error detected in Object=FENESTRATIONSURFACE:DETAILED, name=W-00_118-E-W-110-W-1
   **   ~~~   ** Field [Construction Name] is required but was blank
   ************* IDF Context for following error/warning message:
   ************* Note -- lines truncated at 300 characters, if necessary...
   *************   4121 FenestrationSurface:Detailed,
   ************* indicated Name=W-00_118-E-W-110-W-2
   ************* Only last 3 lines before error line shown.....
   *************   4122   W-00_118-E-W-110-W-2,                   !- Name
   *************   4123   Window,                                 !- Surface Type
   *************   4124   ,                                       !- Construction Name
   ** Severe  ** IP: IDF line~4124 Error detected in Object=FENESTRATIONSURFACE:DETAILED, name=W-00_118-E-W-110-W-2
   **   ~~~   ** Field [Construction Name] is required but was blank
   ************* IDF Context for following error/warning message:
   ************* Note -- lines truncated at 300 characters, if necessary...
   *************   4137 BuildingSurface:Detailed,
   ************* indicated Name=W-01_118-E-W-299
   ************* Only last 3 lines before error line shown.....
   *************   4138   W-01_118-E-W-299,                       !- Name
   *************   4139   Wall,                                   !- Surface Type
   *************   4140   ,                                       !- Construction Name
   ** Severe  ** IP: IDF line~4140 Error detected in Object=BUILDINGSURFACE:DETAILED, name=W-01_118-E-W-299
   **   ~~~   ** Field [Construction Name] is required but was blank
   ************* IDF Context for following error/warning message:
   ************* Note -- lines truncated at 300 characters, if necessary...
   *************   4153 FenestrationSurface:Detailed,
   ************* indicated Name=W-01_118-E-W-299-W-1
   ************* Only last 3 lines before error line shown.....
   *************   4154   W-01_118-E-W-299-W-1,                   !- Name
   *************   4155   Window,                                 !- Surface Type
   *************   4156   ,                                       !- Construction Name
   ** Severe  ** IP: IDF line~4156 Error detected in Object=FENESTRATIONSURFACE:DETAILED, name=W-01_118-E-W-299-W-1
   **   ~~~   ** Field [Construction Name] is required but was blank
   ************* IDF Context for following error/warning message:
   ************* Note -- lines truncated at 300 characters, if necessary...
   *************   4169 FenestrationSurface:Detailed,
   ************* indicated Name=W-01_118-E-W-299-W-2
   ************* Only last 3 lines before error line shown.....
   *************   4170   W-01_118-E-W-299-W-2,                   !- Name
   *************   4171   Window,                                 !- Surface Type
   *************   4172   ,                                       !- Construction Name
   ** Severe  ** IP: IDF line~4172 Error detected in Object=FENESTRATIONSURFACE:DETAILED, name=W-01_118-E-W-299-W-2
   **   ~~~   ** Field [Construction Name] is required but was blank
   ************* IDF Context for following error/warning message:
   ************* Note -- lines truncated at 300 characters, if necessary...
   *************   4185 FenestrationSurface:Detailed,
   ************* indicated Name=W-01_118-E-W-299-W-3
   ************* Only last 3 lines before error line shown.....
   *************   4186   W-01_118-E-W-299-W-3,                   !- Name
   *************   4187   Window,                                 !- Surface Type
   *************   4188   ,                                       !- Construction Name
   ** Severe  ** IP: IDF line~4188 Error detected in Object=FENESTRATIONSURFACE:DETAILED, name=W-01_118-E-W-299-W-3
   **   ~~~   ** Field [Construction Name] is required but was blank
   ************* IDF Context for following error/warning message:
   ************* Note -- lines truncated at 300 characters, if necessary...
   *************   4201 FenestrationSurface:Detailed,
   ************* indicated Name=W-01_118-E-W-299-W-4
   ************* Only last 3 lines before error line shown.....
   *************   4202   W-01_118-E-W-299-W-4,                   !- Name
   *************   4203   Window,                                 !- Surface Type
   *************   4204   ,                                       !- Construction Name
   ** Severe  ** IP: IDF line~4204 Error detected in Object=FENESTRATIONSURFACE:DETAILED, name=W-01_118-E-W-299-W-4
   **   ~~~   ** Field [Construction Name] is required but was blank
   ************* IDF Context for following error/warning message:
   ************* Note -- lines truncated at 300 characters, if necessary...
   *************   4217 FenestrationSurface:Detailed,
   ************* indicated Name=W-01_118-E-W-299-W-5
   ************* Only last 3 lines before error line shown.....
   *************   4218   W-01_118-E-W-299-W-5,                   !- Name
   *************   4219   Window,                                 !- Surface Type
   *************   4220   ,                                       !- Construction Name
   ** Severe  ** IP: IDF line~4220 Error detected in Object=FENESTRATIONSURFACE:DETAILED, name=W-01_118-E-W-299-W-5
   **   ~~~   ** Field [Construction Name] is required but was blank
   ************* IDF Context for following error/warning message:
   ************* Note -- lines truncated at 300 characters, if necessary...
   *************   4233 FenestrationSurface:Detailed,
   ************* indicated Name=W-01_118-E-W-299-W-6
   ************* Only last 3 lines before error line shown.....
   *************   4234   W-01_118-E-W-299-W-6,                   !- Name
   *************   4235   Window,                                 !- Surface Type
   *************   4236   ,                                       !- Construction Name
   ** Severe  ** IP: IDF line~4236 Error detected in Object=FENESTRATIONSURFACE:DETAILED, name=W-01_118-E-W-299-W-6
   **   ~~~   ** Field [Construction Name] is required but was blank
   ************* IDF Context for following error/warning message:
   ************* Note -- lines truncated at 300 characters, if necessary...
   *************   4249 FenestrationSurface:Detailed,
   ************* indicated Name=W-01_118-E-W-299-W-7
   ************* Only last 3 lines before error line shown.....
   *************   4250   W-01_118-E-W-299-W-7,                   !- Name
   *************   4251   Window,                                 !- Surface Type
   *************   4252   ,                                       !- Construction Name
   ** Severe  ** IP: IDF line~4252 Error detected in Object=FENESTRATIONSURFACE:DETAILED, name=W-01_118-E-W-299-W-7
   **   ~~~   ** Field [Construction Name] is required but was blank
   ************* IDF Context for following error/warning message:
   ************* Note -- lines truncated at 300 characters, if necessary...
   *************   4265 BuildingSurface:Detailed,
   ************* indicated Name=W-02_116-E-W-416
   ************* Only last 3 lines before error line shown.....
   *************   4266   W-02_116-E-W-416,                       !- Name
   *************   4267   Wall,                                   !- Surface Type
   *************   4268   ,                                       !- Construction Name
   ** Severe  ** IP: IDF line~4268 Error detected in Object=BUILDINGSURFACE:DETAILED, name=W-02_116-E-W-416
   **   ~~~   ** Field [Construction Name] is required but was blank
   ************* IDF Context for following error/warning message:
   ************* Note -- lines truncated at 300 characters, if necessary...
   *************   4281 FenestrationSurface:Detailed,
   ************* indicated Name=W-02_116-E-W-416-W-1
   ************* Only last 3 lines before error line shown.....
   *************   4282   W-02_116-E-W-416-W-1,                   !- Name
   *************   4283   Window,                                 !- Surface Type
   *************   4284   ,                                       !- Construction Name
   ** Severe  ** IP: IDF line~4284 Error detected in Object=FENESTRATIONSURFACE:DETAILED, name=W-02_116-E-W-416-W-1
   **   ~~~   ** Field [Construction Name] is required but was blank
   ************* IDF Context for following error/warning message:
   ************* Note -- lines truncated at 300 characters, if necessary...
   *************   4297 FenestrationSurface:Detailed,
   ************* indicated Name=W-02_116-E-W-416-W-2
   ************* Only last 3 lines before error line shown.....
   *************   4298   W-02_116-E-W-416-W-2,                   !- Name
   *************   4299   Window,                                 !- Surface Type
   *************   4300   ,                                       !- Construction Name
   ** Severe  ** IP: IDF line~4300 Error detected in Object=FENESTRATIONSURFACE:DETAILED, name=W-02_116-E-W-416-W-2
   **   ~~~   ** Field [Construction Name] is required but was blank
   ************* IDF Context for following error/warning message:
   ************* Note -- lines truncated at 300 characters, if necessary...
   *************   4313 FenestrationSurface:Detailed,
   ************* indicated Name=W-02_116-E-W-416-W-3
   ************* Only last 3 lines before error line shown.....
   *************   4314   W-02_116-E-W-416-W-3,                   !- Name
   *************   4315   Window,                                 !- Surface Type
   *************   4316   ,                                       !- Construction Name
   ** Severe  ** IP: IDF line~4316 Error detected in Object=FENESTRATIONSURFACE:DETAILED, name=W-02_116-E-W-416-W-3
   **   ~~~   ** Field [Construction Name] is required but was blank
   ************* IDF Context for following error/warning message:
   ************* Note -- lines truncated at 300 characters, if necessary...
   *************   4329 FenestrationSurface:Detailed,
   ************* indicated Name=W-02_116-E-W-416-W-4
   ************* Only last 3 lines before error line shown.....
   *************   4330   W-02_116-E-W-416-W-4,                   !- Name
   *************   4331   Window,                                 !- Surface Type
   *************   4332   ,                                       !- Construction Name
   ** Severe  ** IP: IDF line~4332 Error detected in Object=FENESTRATIONSURFACE:DETAILED, name=W-02_116-E-W-416-W-4
   **   ~~~   ** Field [Construction Name] is required but was blank
   ************* IDF Context for following error/warning message:
   ************* Note -- lines truncated at 300 characters, if necessary...
   *************   4345 FenestrationSurface:Detailed,
   ************* indicated Name=W-02_116-E-W-416-W-5
   ************* Only last 3 lines before error line shown.....
   *************   4346   W-02_116-E-W-416-W-5,                   !- Name
   *************   4347   Window,                                 !- Surface Type
   *************   4348   ,                                       !- Construction Name
   ** Severe  ** IP: IDF line~4348 Error detected in Object=FENESTRATIONSURFACE:DETAILED, name=W-02_116-E-W-416-W-5
   **   ~~~   ** Field [Construction Name] is required but was blank
   ************* IDF Context for following error/warning message:
   ************* Note -- lines truncated at 300 characters, if necessary...
   *************   4361 FenestrationSurface:Detailed,
   ************* indicated Name=W-02_116-E-W-416-W-6
   ************* Only last 3 lines before error line shown.....
   *************   4362   W-02_116-E-W-416-W-6,                   !- Name
   *************   4363   Window,                                 !- Surface Type
   *************   4364   ,                                       !- Construction Name
   ** Severe  ** IP: IDF line~4364 Error detected in Object=FENESTRATIONSURFACE:DETAILED, name=W-02_116-E-W-416-W-6
   **   ~~~   ** Field [Construction Name] is required but was blank
   ************* IDF Context for following error/warning message:
   ************* Note -- lines truncated at 300 characters, if necessary...
   *************   4377 BuildingSurface:Detailed,
   ************* indicated Name=W-02_117-E-W-421
   ************* Only last 3 lines before error line shown.....
   *************   4378   W-02_117-E-W-421,                       !- Name
   *************   4379   Wall,                                   !- Surface Type
   *************   4380   ,                                       !- Construction Name
   ** Severe  ** IP: IDF line~4380 Error detected in Object=BUILDINGSURFACE:DETAILED, name=W-02_117-E-W-421
   **   ~~~   ** Field [Construction Name] is required but was blank
   ************* IDF Context for following error/warning message:
   ************* Note -- lines truncated at 300 characters, if necessary...
   *************   4393 FenestrationSurface:Detailed,
   ************* indicated Name=W-02_117-E-W-421-W-1
   ************* Only last 3 lines before error line shown.....
   *************   4394   W-02_117-E-W-421-W-1,                   !- Name
   *************   4395   Window,                                 !- Surface Type
   *************   4396   ,                                       !- Construction Name
   ** Severe  ** IP: IDF line~4396 Error detected in Object=FENESTRATIONSURFACE:DETAILED, name=W-02_117-E-W-421-W-1
   **   ~~~   ** Field [Construction Name] is required but was blank
   ************* IDF Context for following error/warning message:
   ************* Note -- lines truncated at 300 characters, if necessary...
   *************   4409 FenestrationSurface:Detailed,
   ************* indicated Name=W-02_117-E-W-421-W-2
   ************* Only last 3 lines before error line shown.....
   *************   4410   W-02_117-E-W-421-W-2,                   !- Name
   *************   4411   Window,                                 !- Surface Type
   *************   4412   ,                                       !- Construction Name
   ** Severe  ** IP: IDF line~4412 Error detected in Object=FENESTRATIONSURFACE:DETAILED, name=W-02_117-E-W-421-W-2
   **   ~~~   ** Field [Construction Name] is required but was blank
   ************* IDF Context for following error/warning message:
   ************* Note -- lines truncated at 300 characters, if necessary...
   *************   4425 FenestrationSurface:Detailed,
   ************* indicated Name=W-02_117-E-W-421-W-3
   ************* Only last 3 lines before error line shown.....
   *************   4426   W-02_117-E-W-421-W-3,                   !- Name
   *************   4427   Window,                                 !- Surface Type
   *************   4428   ,                                       !- Construction Name
   ** Severe  ** IP: IDF line~4428 Error detected in Object=FENESTRATIONSURFACE:DETAILED, name=W-02_117-E-W-421-W-3
   **   ~~~   ** Field [Construction Name] is required but was blank
   ************* IDF Context for following error/warning message:
   ************* Note -- lines truncated at 300 characters, if necessary...
   *************   4441 FenestrationSurface:Detailed,
   ************* indicated Name=W-02_117-E-W-421-W-4
   ************* Only last 3 lines before error line shown.....
   *************   4442   W-02_117-E-W-421-W-4,                   !- Name
   *************   4443   Window,                                 !- Surface Type
   *************   4444   ,                                       !- Construction Name
   ** Severe  ** IP: IDF line~4444 Error detected in Object=FENESTRATIONSURFACE:DETAILED, name=W-02_117-E-W-421-W-4
   **   ~~~   ** Field [Construction Name] is required but was blank
   ************* IDF Context for following error/warning message:
   ************* Note -- lines truncated at 300 characters, if necessary...
   *************   4457 BuildingSurface:Detailed,
   ************* indicated Name=W-B1_107-E-W-469
   ************* Only last 3 lines before error line shown.....
   *************   4458   W-B1_107-E-W-469,                       !- Name
   *************   4459   Wall,                                   !- Surface Type
   *************   4460   ,                                       !- Construction Name
   ** Severe  ** IP: IDF line~4460 Error detected in Object=BUILDINGSURFACE:DETAILED, name=W-B1_107-E-W-469
   **   ~~~   ** Field [Construction Name] is required but was blank
   ************* IDF Context for following error/warning message:
   ************* Note -- lines truncated at 300 characters, if necessary...
   *************   4473 BuildingSurface:Detailed,
   ************* indicated Name=W-B1_109-E-W-479
   ************* Only last 3 lines before error line shown.....
   *************   4474   W-B1_109-E-W-479,                       !- Name
   *************   4475   Wall,                                   !- Surface Type
   *************   4476   ,                                       !- Construction Name
   ** Severe  ** IP: IDF line~4476 Error detected in Object=BUILDINGSURFACE:DETAILED, name=W-B1_109-E-W-479
   **   ~~~   ** Field [Construction Name] is required but was blank
   ************* IDF Context for following error/warning message:
   ************* Note -- lines truncated at 300 characters, if necessary...
   *************   4489 BuildingSurface:Detailed,
   ************* indicated Name=W-RF_101-E-W-489
   ************* Only last 3 lines before error line shown.....
   *************   4490   W-RF_101-E-W-489,                       !- Name
   *************   4491   Wall,                                   !- Surface Type
   *************   4492   ,                                       !- Construction Name
   ** Severe  ** IP: IDF line~4492 Error detected in Object=BUILDINGSURFACE:DETAILED, name=W-RF_101-E-W-489
   **   ~~~   ** Field [Construction Name] is required but was blank
   ** Severe  ** IP: Blank "required" fields found in input
   ** Severe  ** IP: Out of "range" values and/or blank required fields found in input
   **  Fatal  ** IP: Errors occurred on processing IDF file. Preceding condition(s) cause termination.
   ...Summary of Errors that led to program termination:
   ..... Reference severe error count=266
   ..... Last severe error=IP: Out of "range" values and/or blank required fields found in input
   ************* Warning:  Node connection errors not checked - most system input has not been read (see previous warning).
   ************* Fatal error -- final processing.  Program exited before simulations began.  See previous error messages.
   ************* EnergyPlus Warmup Error Summary. During Warmup: 0 Warning; 0 Severe Errors.
   ************* EnergyPlus Sizing Error Summary. During Sizing: 0 Warning; 0 Severe Errors.
   ************* EnergyPlus Terminated--Fatal Error Detected. 0 Warning; 266 Severe Errors; Elapsed Time=00hr 00min  0.31sec
