Program Version,EnergyPlus, Version 8.8.0-7c3bbe4830, YMD=2017.10.29 00:43,IDD_Version 8.8.0
   ************* IDF Context for following error/warning message:
   ************* Note -- lines truncated at 300 characters, if necessary...
   *************   1304 BuildingSurface:Detailed,
   ************* indicated Name=diagonal-interior-wall-floor-1-space-1
   ************* Only last 3 lines before error line shown.....
   *************   1305   diagonal-interior-wall-floor-1-space-1, !- Name
   *************   1306   Wall,                                   !- Surface Type
   *************   1307   ,                                       !- Construction Name
   ** Severe  ** IP: IDF line~1307 Error detected in Object=BUILDINGSURFACE:DETAILED, name=DIAGONAL-INTERIOR-WALL-FLOOR-1-SPACE-1
   **   ~~~   ** Field [Construction Name] is required but was blank
   ************* IDF Context for following error/warning message:
   ************* Note -- lines truncated at 300 characters, if necessary...
   *************   1320 BuildingSurface:Detailed,
   ************* indicated Name=diagonal-interior-wall-floor-1-space-8 Reversed
   ************* Only last 3 lines before error line shown.....
   *************   1321   diagonal-interior-wall-floor-1-space-8 Reversed, !- Name
   *************   1322   Wall,                                   !- Surface Type
   *************   1323   ,                                       !- Construction Name
   ** Severe  ** IP: IDF line~1323 Error detected in Object=BUILDINGSURFACE:DETAILED, name=DIAGONAL-INTERIOR-WALL-FLOOR-1-SPACE-8 REVERSED
   **   ~~~   ** Field [Construction Name] is required but was blank
   ************* IDF Context for following error/warning message:
   ************* Note -- lines truncated at 300 characters, if necessary...
   *************   1336 BuildingSurface:Detailed,
   ************* indicated Name=diagonal-interior-wall-floor-10-space-1 Reversed
   ************* Only last 3 lines before error line shown.....
   *************   1337   diagonal-interior-wall-floor-10-space-1 Reversed, !- Name
   *************   1338   Wall,                                   !- Surface Type
   *************   1339   ,                                       !- Construction Name
   ** Severe  ** IP: IDF line~1339 Error detected in Object=BUILDINGSURFACE:DETAILED, name=DIAGONAL-INTERIOR-WALL-FLOOR-10-SPACE-1 REVERSED
   **   ~~~   ** Field [Construction Name] is required but was blank
   ************* IDF Context for following error/warning message:
   ************* Note -- lines truncated at 300 characters, if necessary...
   *************   1352 BuildingSurface:Detailed,
   ************* indicated Name=diagonal-interior-wall-floor-10-space-2 Reversed
   ************* Only last 3 lines before error line shown.....
   *************   1353   diagonal-interior-wall-floor-10-space-2 Reversed, !- Name
   *************   1354   Wall,                                   !- Surface Type
   *************   1355   ,                                       !- Construction Name
   ** Severe  ** IP: IDF line~1355 Error detected in Object=BUILDINGSURFACE:DETAILED, name=DIAGONAL-INTERIOR-WALL-FLOOR-10-SPACE-2 REVERSED
   **   ~~~   ** Field [Construction Name] is required but was blank
   ************* IDF Context for following error/warning message:
   ************* Note -- lines truncated at 300 characters, if necessary...
   *************   1368 BuildingSurface:Detailed,
   ************* indicated Name=diagonal-interior-wall-floor-10-space-3 Reversed
   ************* Only last 3 lines before error line shown.....
   *************   1369   diagonal-interior-wall-floor-10-space-3 Reversed, !- Name
   *************   1370   Wall,                                   !- Surface Type
   *************   1371   ,                                       !- Construction Name
   ** Severe  ** IP: IDF line~1371 Error detected in Object=BUILDINGSURFACE:DETAILED, name=DIAGONAL-INTERIOR-WALL-FLOOR-10-SPACE-3 REVERSED
   **   ~~~   ** Field [Construction Name] is required but was blank
   ************* IDF Context for following error/warning message:
   ************* Note -- lines truncated at 300 characters, if necessary...
   *************   1384 BuildingSurface:Detailed,
   ************* indicated Name=diagonal-interior-wall-floor-10-space-4 Reversed
   ************* Only last 3 lines before error line shown.....
   *************   1385   diagonal-interior-wall-floor-10-space-4 Reversed, !- Name
   *************   1386   Wall,                                   !- Surface Type
   *************   1387   ,                                       !- Construction Name
   ** Severe  ** IP: IDF line~1387 Error detected in Object=BUILDINGSURFACE:DETAILED, name=DIAGONAL-INTERIOR-WALL-FLOOR-10-SPACE-4 REVERSED
   **   ~~~   ** Field [Construction Name] is required but was blank
   ************* IDF Context for following error/warning message:
   ************* Note -- lines truncated at 300 characters, if necessary...
   *************   1400 BuildingSurface:Detailed,
   ************* indicated Name=diagonal-interior-wall-floor-10-space-5 Reversed
   ************* Only last 3 lines before error line shown.....
   *************   1401   diagonal-interior-wall-floor-10-space-5 Reversed, !- Name
   *************   1402   Wall,                                   !- Surface Type
   *************   1403   ,                                       !- Construction Name
   ** Severe  ** IP: IDF line~1403 Error detected in Object=BUILDINGSURFACE:DETAILED, name=DIAGONAL-INTERIOR-WALL-FLOOR-10-SPACE-5 REVERSED
   **   ~~~   ** Field [Construction Name] is required but was blank
   ************* IDF Context for following error/warning message:
   ************* Note -- lines truncated at 300 characters, if necessary...
   *************   1416 BuildingSurface:Detailed,
   ************* indicated Name=diagonal-interior-wall-floor-10-space-6 Reversed
   ************* Only last 3 lines before error line shown.....
   *************   1417   diagonal-interior-wall-floor-10-space-6 Reversed, !- Name
   *************   1418   Wall,                                   !- Surface Type
   *************   1419   ,                                       !- Construction Name
   ** Severe  ** IP: IDF line~1419 Error detected in Object=BUILDINGSURFACE:DETAILED, name=DIAGONAL-INTERIOR-WALL-FLOOR-10-SPACE-6 REVERSED
   **   ~~~   ** Field [Construction Name] is required but was blank
   ************* IDF Context for following error/warning message:
   ************* Note -- lines truncated at 300 characters, if necessary...
   *************   1432 BuildingSurface:Detailed,
   ************* indicated Name=diagonal-interior-wall-floor-10-space-7 Reversed
   ************* Only last 3 lines before error line shown.....
   *************   1433   diagonal-interior-wall-floor-10-space-7 Reversed, !- Name
   *************   1434   Wall,                                   !- Surface Type
   *************   1435   ,                                       !- Construction Name
   ** Severe  ** IP: IDF line~1435 Error detected in Object=BUILDINGSURFACE:DETAILED, name=DIAGONAL-INTERIOR-WALL-FLOOR-10-SPACE-7 REVERSED
   **   ~~~   ** Field [Construction Name] is required but was blank
   ************* IDF Context for following error/warning message:
   ************* Note -- lines truncated at 300 characters, if necessary...
   *************   1448 BuildingSurface:Detailed,
   ************* indicated Name=diagonal-interior-wall-floor-10-space-8 Reversed
   ************* Only last 3 lines before error line shown.....
   *************   1449   diagonal-interior-wall-floor-10-space-8 Reversed, !- Name
   *************   1450   Wall,                                   !- Surface Type
   *************   1451   ,                                       !- Construction Name
   ** Severe  ** IP: IDF line~1451 Error detected in Object=BUILDINGSURFACE:DETAILED, name=DIAGONAL-INTERIOR-WALL-FLOOR-10-SPACE-8 REVERSED
   **   ~~~   ** Field [Construction Name] is required but was blank
   ************* IDF Context for following error/warning message:
   ************* Note -- lines truncated at 300 characters, if necessary...
   *************   1464 BuildingSurface:Detailed,
   ************* indicated Name=diagonal-interior-wall-floor-2-space-1 Reversed
   ************* Only last 3 lines before error line shown.....
   *************   1465   diagonal-interior-wall-floor-2-space-1 Reversed, !- Name
   *************   1466   Wall,                                   !- Surface Type
   *************   1467   ,                                       !- Construction Name
   ** Severe  ** IP: IDF line~1467 Error detected in Object=BUILDINGSURFACE:DETAILED, name=DIAGONAL-INTERIOR-WALL-FLOOR-2-SPACE-1 REVERSED
   **   ~~~   ** Field [Construction Name] is required but was blank
   ************* IDF Context for following error/warning message:
   ************* Note -- lines truncated at 300 characters, if necessary...
   *************   1480 BuildingSurface:Detailed,
   ************* indicated Name=diagonal-interior-wall-floor-2-space-2 Reversed
   ************* Only last 3 lines before error line shown.....
   *************   1481   diagonal-interior-wall-floor-2-space-2 Reversed, !- Name
   *************   1482   Wall,                                   !- Surface Type
   *************   1483   ,                                       !- Construction Name
   ** Severe  ** IP: IDF line~1483 Error detected in Object=BUILDINGSURFACE:DETAILED, name=DIAGONAL-INTERIOR-WALL-FLOOR-2-SPACE-2 REVERSED
   **   ~~~   ** Field [Construction Name] is required but was blank
   ************* IDF Context for following error/warning message:
   ************* Note -- lines truncated at 300 characters, if necessary...
   *************   1496 BuildingSurface:Detailed,
   ************* indicated Name=diagonal-interior-wall-floor-2-space-3 Reversed
   ************* Only last 3 lines before error line shown.....
   *************   1497   diagonal-interior-wall-floor-2-space-3 Reversed, !- Name
   *************   1498   Wall,                                   !- Surface Type
   *************   1499   ,                                       !- Construction Name
   ** Severe  ** IP: IDF line~1499 Error detected in Object=BUILDINGSURFACE:DETAILED, name=DIAGONAL-INTERIOR-WALL-FLOOR-2-SPACE-3 REVERSED
   **   ~~~   ** Field [Construction Name] is required but was blank
   ************* IDF Context for following error/warning message:
   ************* Note -- lines truncated at 300 characters, if necessary...
   *************   1512 BuildingSurface:Detailed,
   ************* indicated Name=diagonal-interior-wall-floor-2-space-4 Reversed
   ************* Only last 3 lines before error line shown.....
   *************   1513   diagonal-interior-wall-floor-2-space-4 Reversed, !- Name
   *************   1514   Wall,                                   !- Surface Type
   *************   1515   ,                                       !- Construction Name
   ** Severe  ** IP: IDF line~1515 Error detected in Object=BUILDINGSURFACE:DETAILED, name=DIAGONAL-INTERIOR-WALL-FLOOR-2-SPACE-4 REVERSED
   **   ~~~   ** Field [Construction Name] is required but was blank
   ************* IDF Context for following error/warning message:
   ************* Note -- lines truncated at 300 characters, if necessary...
   *************   1528 BuildingSurface:Detailed,
   ************* indicated Name=diagonal-interior-wall-floor-2-space-5 Reversed
   ************* Only last 3 lines before error line shown.....
   *************   1529   diagonal-interior-wall-floor-2-space-5 Reversed, !- Name
   *************   1530   Wall,                                   !- Surface Type
   *************   1531   ,                                       !- Construction Name
   ** Severe  ** IP: IDF line~1531 Error detected in Object=BUILDINGSURFACE:DETAILED, name=DIAGONAL-INTERIOR-WALL-FLOOR-2-SPACE-5 REVERSED
   **   ~~~   ** Field [Construction Name] is required but was blank
   ************* IDF Context for following error/warning message:
   ************* Note -- lines truncated at 300 characters, if necessary...
   *************   1544 BuildingSurface:Detailed,
   ************* indicated Name=diagonal-interior-wall-floor-2-space-6 Reversed
   ************* Only last 3 lines before error line shown.....
   *************   1545   diagonal-interior-wall-floor-2-space-6 Reversed, !- Name
   *************   1546   Wall,                                   !- Surface Type
   *************   1547   ,                                       !- Construction Name
   ** Severe  ** IP: IDF line~1547 Error detected in Object=BUILDINGSURFACE:DETAILED, name=DIAGONAL-INTERIOR-WALL-FLOOR-2-SPACE-6 REVERSED
   **   ~~~   ** Field [Construction Name] is required but was blank
   ************* IDF Context for following error/warning message:
   ************* Note -- lines truncated at 300 characters, if necessary...
   *************   1560 BuildingSurface:Detailed,
   ************* indicated Name=diagonal-interior-wall-floor-2-space-7 Reversed
   ************* Only last 3 lines before error line shown.....
   *************   1561   diagonal-interior-wall-floor-2-space-7 Reversed, !- Name
   *************   1562   Wall,                                   !- Surface Type
   *************   1563   ,                                       !- Construction Name
   ** Severe  ** IP: IDF line~1563 Error detected in Object=BUILDINGSURFACE:DETAILED, name=DIAGONAL-INTERIOR-WALL-FLOOR-2-SPACE-7 REVERSED
   **   ~~~   ** Field [Construction Name] is required but was blank
   ************* IDF Context for following error/warning message:
   ************* Note -- lines truncated at 300 characters, if necessary...
   *************   1576 BuildingSurface:Detailed,
   ************* indicated Name=diagonal-interior-wall-floor-2-space-8 Reversed
   ************* Only last 3 lines before error line shown.....
   *************   1577   diagonal-interior-wall-floor-2-space-8 Reversed, !- Name
   *************   1578   Wall,                                   !- Surface Type
   *************   1579   ,                                       !- Construction Name
   ** Severe  ** IP: IDF line~1579 Error detected in Object=BUILDINGSURFACE:DETAILED, name=DIAGONAL-INTERIOR-WALL-FLOOR-2-SPACE-8 REVERSED
   **   ~~~   ** Field [Construction Name] is required but was blank
   ************* IDF Context for following error/warning message:
   ************* Note -- lines truncated at 300 characters, if necessary...
   *************   1592 BuildingSurface:Detailed,
   ************* indicated Name=diagonal-interior-wall-floor-3-space-1 Reversed
   ************* Only last 3 lines before error line shown.....
   *************   1593   diagonal-interior-wall-floor-3-space-1 Reversed, !- Name
   *************   1594   Wall,                                   !- Surface Type
   *************   1595   ,                                       !- Construction Name
   ** Severe  ** IP: IDF line~1595 Error detected in Object=BUILDINGSURFACE:DETAILED, name=DIAGONAL-INTERIOR-WALL-FLOOR-3-SPACE-1 REVERSED
   **   ~~~   ** Field [Construction Name] is required but was blank
   ************* IDF Context for following error/warning message:
   ************* Note -- lines truncated at 300 characters, if necessary...
   *************   1608 BuildingSurface:Detailed,
   ************* indicated Name=diagonal-interior-wall-floor-3-space-2 Reversed
   ************* Only last 3 lines before error line shown.....
   *************   1609   diagonal-interior-wall-floor-3-space-2 Reversed, !- Name
   *************   1610   Wall,                                   !- Surface Type
   *************   1611   ,                                       !- Construction Name
   ** Severe  ** IP: IDF line~1611 Error detected in Object=BUILDINGSURFACE:DETAILED, name=DIAGONAL-INTERIOR-WALL-FLOOR-3-SPACE-2 REVERSED
   **   ~~~   ** Field [Construction Name] is required but was blank
   ************* IDF Context for following error/warning message:
   ************* Note -- lines truncated at 300 characters, if necessary...
   *************   1624 BuildingSurface:Detailed,
   ************* indicated Name=diagonal-interior-wall-floor-3-space-3 Reversed
   ************* Only last 3 lines before error line shown.....
   *************   1625   diagonal-interior-wall-floor-3-space-3 Reversed, !- Name
   *************   1626   Wall,                                   !- Surface Type
   *************   1627   ,                                       !- Construction Name
   ** Severe  ** IP: IDF line~1627 Error detected in Object=BUILDINGSURFACE:DETAILED, name=DIAGONAL-INTERIOR-WALL-FLOOR-3-SPACE-3 REVERSED
   **   ~~~   ** Field [Construction Name] is required but was blank
   ************* IDF Context for following error/warning message:
   ************* Note -- lines truncated at 300 characters, if necessary...
   *************   1640 BuildingSurface:Detailed,
   ************* indicated Name=diagonal-interior-wall-floor-3-space-4 Reversed
   ************* Only last 3 lines before error line shown.....
   *************   1641   diagonal-interior-wall-floor-3-space-4 Reversed, !- Name
   *************   1642   Wall,                                   !- Surface Type
   *************   1643   ,                                       !- Construction Name
   ** Severe  ** IP: IDF line~1643 Error detected in Object=BUILDINGSURFACE:DETAILED, name=DIAGONAL-INTERIOR-WALL-FLOOR-3-SPACE-4 REVERSED
   **   ~~~   ** Field [Construction Name] is required but was blank
   ************* IDF Context for following error/warning message:
   ************* Note -- lines truncated at 300 characters, if necessary...
   *************   1656 BuildingSurface:Detailed,
   ************* indicated Name=diagonal-interior-wall-floor-3-space-5 Reversed
   ************* Only last 3 lines before error line shown.....
   *************   1657   diagonal-interior-wall-floor-3-space-5 Reversed, !- Name
   *************   1658   Wall,                                   !- Surface Type
   *************   1659   ,                                       !- Construction Name
   ** Severe  ** IP: IDF line~1659 Error detected in Object=BUILDINGSURFACE:DETAILED, name=DIAGONAL-INTERIOR-WALL-FLOOR-3-SPACE-5 REVERSED
   **   ~~~   ** Field [Construction Name] is required but was blank
   ************* IDF Context for following error/warning message:
   ************* Note -- lines truncated at 300 characters, if necessary...
   *************   1672 BuildingSurface:Detailed,
   ************* indicated Name=diagonal-interior-wall-floor-3-space-6 Reversed
   ************* Only last 3 lines before error line shown.....
   *************   1673   diagonal-interior-wall-floor-3-space-6 Reversed, !- Name
   *************   1674   Wall,                                   !- Surface Type
   *************   1675   ,                                       !- Construction Name
   ** Severe  ** IP: IDF line~1675 Error detected in Object=BUILDINGSURFACE:DETAILED, name=DIAGONAL-INTERIOR-WALL-FLOOR-3-SPACE-6 REVERSED
   **   ~~~   ** Field [Construction Name] is required but was blank
   ************* IDF Context for following error/warning message:
   ************* Note -- lines truncated at 300 characters, if necessary...
   *************   1688 BuildingSurface:Detailed,
   ************* indicated Name=diagonal-interior-wall-floor-3-space-7 Reversed
   ************* Only last 3 lines before error line shown.....
   *************   1689   diagonal-interior-wall-floor-3-space-7 Reversed, !- Name
   *************   1690   Wall,                                   !- Surface Type
   *************   1691   ,                                       !- Construction Name
   ** Severe  ** IP: IDF line~1691 Error detected in Object=BUILDINGSURFACE:DETAILED, name=DIAGONAL-INTERIOR-WALL-FLOOR-3-SPACE-7 REVERSED
   **   ~~~   ** Field [Construction Name] is required but was blank
   ************* IDF Context for following error/warning message:
   ************* Note -- lines truncated at 300 characters, if necessary...
   *************   1704 BuildingSurface:Detailed,
   ************* indicated Name=diagonal-interior-wall-floor-3-space-8 Reversed
   ************* Only last 3 lines before error line shown.....
   *************   1705   diagonal-interior-wall-floor-3-space-8 Reversed, !- Name
   *************   1706   Wall,                                   !- Surface Type
   *************   1707   ,                                       !- Construction Name
   ** Severe  ** IP: IDF line~1707 Error detected in Object=BUILDINGSURFACE:DETAILED, name=DIAGONAL-INTERIOR-WALL-FLOOR-3-SPACE-8 REVERSED
   **   ~~~   ** Field [Construction Name] is required but was blank
   ************* IDF Context for following error/warning message:
   ************* Note -- lines truncated at 300 characters, if necessary...
   *************   1720 BuildingSurface:Detailed,
   ************* indicated Name=diagonal-interior-wall-floor-4-space-1 Reversed
   ************* Only last 3 lines before error line shown.....
   *************   1721   diagonal-interior-wall-floor-4-space-1 Reversed, !- Name
   *************   1722   Wall,                                   !- Surface Type
   *************   1723   ,                                       !- Construction Name
   ** Severe  ** IP: IDF line~1723 Error detected in Object=BUILDINGSURFACE:DETAILED, name=DIAGONAL-INTERIOR-WALL-FLOOR-4-SPACE-1 REVERSED
   **   ~~~   ** Field [Construction Name] is required but was blank
   ************* IDF Context for following error/warning message:
   ************* Note -- lines truncated at 300 characters, if necessary...
   *************   1736 BuildingSurface:Detailed,
   ************* indicated Name=diagonal-interior-wall-floor-4-space-2 Reversed
   ************* Only last 3 lines before error line shown.....
   *************   1737   diagonal-interior-wall-floor-4-space-2 Reversed, !- Name
   *************   1738   Wall,                                   !- Surface Type
   *************   1739   ,                                       !- Construction Name
   ** Severe  ** IP: IDF line~1739 Error detected in Object=BUILDINGSURFACE:DETAILED, name=DIAGONAL-INTERIOR-WALL-FLOOR-4-SPACE-2 REVERSED
   **   ~~~   ** Field [Construction Name] is required but was blank
   ************* IDF Context for following error/warning message:
   ************* Note -- lines truncated at 300 characters, if necessary...
   *************   1752 BuildingSurface:Detailed,
   ************* indicated Name=diagonal-interior-wall-floor-4-space-3 Reversed
   ************* Only last 3 lines before error line shown.....
   *************   1753   diagonal-interior-wall-floor-4-space-3 Reversed, !- Name
   *************   1754   Wall,                                   !- Surface Type
   *************   1755   ,                                       !- Construction Name
   ** Severe  ** IP: IDF line~1755 Error detected in Object=BUILDINGSURFACE:DETAILED, name=DIAGONAL-INTERIOR-WALL-FLOOR-4-SPACE-3 REVERSED
   **   ~~~   ** Field [Construction Name] is required but was blank
   ************* IDF Context for following error/warning message:
   ************* Note -- lines truncated at 300 characters, if necessary...
   *************   1768 BuildingSurface:Detailed,
   ************* indicated Name=diagonal-interior-wall-floor-4-space-4 Reversed
   ************* Only last 3 lines before error line shown.....
   *************   1769   diagonal-interior-wall-floor-4-space-4 Reversed, !- Name
   *************   1770   Wall,                                   !- Surface Type
   *************   1771   ,                                       !- Construction Name
   ** Severe  ** IP: IDF line~1771 Error detected in Object=BUILDINGSURFACE:DETAILED, name=DIAGONAL-INTERIOR-WALL-FLOOR-4-SPACE-4 REVERSED
   **   ~~~   ** Field [Construction Name] is required but was blank
   ************* IDF Context for following error/warning message:
   ************* Note -- lines truncated at 300 characters, if necessary...
   *************   1784 BuildingSurface:Detailed,
   ************* indicated Name=diagonal-interior-wall-floor-4-space-5 Reversed
   ************* Only last 3 lines before error line shown.....
   *************   1785   diagonal-interior-wall-floor-4-space-5 Reversed, !- Name
   *************   1786   Wall,                                   !- Surface Type
   *************   1787   ,                                       !- Construction Name
   ** Severe  ** IP: IDF line~1787 Error detected in Object=BUILDINGSURFACE:DETAILED, name=DIAGONAL-INTERIOR-WALL-FLOOR-4-SPACE-5 REVERSED
   **   ~~~   ** Field [Construction Name] is required but was blank
   ************* IDF Context for following error/warning message:
   ************* Note -- lines truncated at 300 characters, if necessary...
   *************   1800 BuildingSurface:Detailed,
   ************* indicated Name=diagonal-interior-wall-floor-4-space-6 Reversed
   ************* Only last 3 lines before error line shown.....
   *************   1801   diagonal-interior-wall-floor-4-space-6 Reversed, !- Name
   *************   1802   Wall,                                   !- Surface Type
   *************   1803   ,                                       !- Construction Name
   ** Severe  ** IP: IDF line~1803 Error detected in Object=BUILDINGSURFACE:DETAILED, name=DIAGONAL-INTERIOR-WALL-FLOOR-4-SPACE-6 REVERSED
   **   ~~~   ** Field [Construction Name] is required but was blank
   ************* IDF Context for following error/warning message:
   ************* Note -- lines truncated at 300 characters, if necessary...
   *************   1816 BuildingSurface:Detailed,
   ************* indicated Name=diagonal-interior-wall-floor-4-space-7 Reversed
   ************* Only last 3 lines before error line shown.....
   *************   1817   diagonal-interior-wall-floor-4-space-7 Reversed, !- Name
   *************   1818   Wall,                                   !- Surface Type
   *************   1819   ,                                       !- Construction Name
   ** Severe  ** IP: IDF line~1819 Error detected in Object=BUILDINGSURFACE:DETAILED, name=DIAGONAL-INTERIOR-WALL-FLOOR-4-SPACE-7 REVERSED
   **   ~~~   ** Field [Construction Name] is required but was blank
   ************* IDF Context for following error/warning message:
   ************* Note -- lines truncated at 300 characters, if necessary...
   *************   1832 BuildingSurface:Detailed,
   ************* indicated Name=diagonal-interior-wall-floor-4-space-8 Reversed
   ************* Only last 3 lines before error line shown.....
   *************   1833   diagonal-interior-wall-floor-4-space-8 Reversed, !- Name
   *************   1834   Wall,                                   !- Surface Type
   *************   1835   ,                                       !- Construction Name
   ** Severe  ** IP: IDF line~1835 Error detected in Object=BUILDINGSURFACE:DETAILED, name=DIAGONAL-INTERIOR-WALL-FLOOR-4-SPACE-8 REVERSED
   **   ~~~   ** Field [Construction Name] is required but was blank
   ************* IDF Context for following error/warning message:
   ************* Note -- lines truncated at 300 characters, if necessary...
   *************   1848 BuildingSurface:Detailed,
   ************* indicated Name=diagonal-interior-wall-floor-5-space-1 Reversed
   ************* Only last 3 lines before error line shown.....
   *************   1849   diagonal-interior-wall-floor-5-space-1 Reversed, !- Name
   *************   1850   Wall,                                   !- Surface Type
   *************   1851   ,                                       !- Construction Name
   ** Severe  ** IP: IDF line~1851 Error detected in Object=BUILDINGSURFACE:DETAILED, name=DIAGONAL-INTERIOR-WALL-FLOOR-5-SPACE-1 REVERSED
   **   ~~~   ** Field [Construction Name] is required but was blank
   ************* IDF Context for following error/warning message:
   ************* Note -- lines truncated at 300 characters, if necessary...
   *************   1864 BuildingSurface:Detailed,
   ************* indicated Name=diagonal-interior-wall-floor-5-space-2 Reversed
   ************* Only last 3 lines before error line shown.....
   *************   1865   diagonal-interior-wall-floor-5-space-2 Reversed, !- Name
   *************   1866   Wall,                                   !- Surface Type
   *************   1867   ,                                       !- Construction Name
   ** Severe  ** IP: IDF line~1867 Error detected in Object=BUILDINGSURFACE:DETAILED, name=DIAGONAL-INTERIOR-WALL-FLOOR-5-SPACE-2 REVERSED
   **   ~~~   ** Field [Construction Name] is required but was blank
   ************* IDF Context for following error/warning message:
   ************* Note -- lines truncated at 300 characters, if necessary...
   *************   1880 BuildingSurface:Detailed,
   ************* indicated Name=diagonal-interior-wall-floor-5-space-3 Reversed
   ************* Only last 3 lines before error line shown.....
   *************   1881   diagonal-interior-wall-floor-5-space-3 Reversed, !- Name
   *************   1882   Wall,                                   !- Surface Type
   *************   1883   ,                                       !- Construction Name
   ** Severe  ** IP: IDF line~1883 Error detected in Object=BUILDINGSURFACE:DETAILED, name=DIAGONAL-INTERIOR-WALL-FLOOR-5-SPACE-3 REVERSED
   **   ~~~   ** Field [Construction Name] is required but was blank
   ************* IDF Context for following error/warning message:
   ************* Note -- lines truncated at 300 characters, if necessary...
   *************   1896 BuildingSurface:Detailed,
   ************* indicated Name=diagonal-interior-wall-floor-5-space-4 Reversed
   ************* Only last 3 lines before error line shown.....
   *************   1897   diagonal-interior-wall-floor-5-space-4 Reversed, !- Name
   *************   1898   Wall,                                   !- Surface Type
   *************   1899   ,                                       !- Construction Name
   ** Severe  ** IP: IDF line~1899 Error detected in Object=BUILDINGSURFACE:DETAILED, name=DIAGONAL-INTERIOR-WALL-FLOOR-5-SPACE-4 REVERSED
   **   ~~~   ** Field [Construction Name] is required but was blank
   ************* IDF Context for following error/warning message:
   ************* Note -- lines truncated at 300 characters, if necessary...
   *************   1912 BuildingSurface:Detailed,
   ************* indicated Name=diagonal-interior-wall-floor-5-space-5 Reversed
   ************* Only last 3 lines before error line shown.....
   *************   1913   diagonal-interior-wall-floor-5-space-5 Reversed, !- Name
   *************   1914   Wall,                                   !- Surface Type
   *************   1915   ,                                       !- Construction Name
   ** Severe  ** IP: IDF line~1915 Error detected in Object=BUILDINGSURFACE:DETAILED, name=DIAGONAL-INTERIOR-WALL-FLOOR-5-SPACE-5 REVERSED
   **   ~~~   ** Field [Construction Name] is required but was blank
   ************* IDF Context for following error/warning message:
   ************* Note -- lines truncated at 300 characters, if necessary...
   *************   1928 BuildingSurface:Detailed,
   ************* indicated Name=diagonal-interior-wall-floor-5-space-6 Reversed
   ************* Only last 3 lines before error line shown.....
   *************   1929   diagonal-interior-wall-floor-5-space-6 Reversed, !- Name
   *************   1930   Wall,                                   !- Surface Type
   *************   1931   ,                                       !- Construction Name
   ** Severe  ** IP: IDF line~1931 Error detected in Object=BUILDINGSURFACE:DETAILED, name=DIAGONAL-INTERIOR-WALL-FLOOR-5-SPACE-6 REVERSED
   **   ~~~   ** Field [Construction Name] is required but was blank
   ************* IDF Context for following error/warning message:
   ************* Note -- lines truncated at 300 characters, if necessary...
   *************   1944 BuildingSurface:Detailed,
   ************* indicated Name=diagonal-interior-wall-floor-5-space-7 Reversed
   ************* Only last 3 lines before error line shown.....
   *************   1945   diagonal-interior-wall-floor-5-space-7 Reversed, !- Name
   *************   1946   Wall,                                   !- Surface Type
   *************   1947   ,                                       !- Construction Name
   ** Severe  ** IP: IDF line~1947 Error detected in Object=BUILDINGSURFACE:DETAILED, name=DIAGONAL-INTERIOR-WALL-FLOOR-5-SPACE-7 REVERSED
   **   ~~~   ** Field [Construction Name] is required but was blank
   ************* IDF Context for following error/warning message:
   ************* Note -- lines truncated at 300 characters, if necessary...
   *************   1960 BuildingSurface:Detailed,
   ************* indicated Name=diagonal-interior-wall-floor-5-space-8 Reversed
   ************* Only last 3 lines before error line shown.....
   *************   1961   diagonal-interior-wall-floor-5-space-8 Reversed, !- Name
   *************   1962   Wall,                                   !- Surface Type
   *************   1963   ,                                       !- Construction Name
   ** Severe  ** IP: IDF line~1963 Error detected in Object=BUILDINGSURFACE:DETAILED, name=DIAGONAL-INTERIOR-WALL-FLOOR-5-SPACE-8 REVERSED
   **   ~~~   ** Field [Construction Name] is required but was blank
   ************* IDF Context for following error/warning message:
   ************* Note -- lines truncated at 300 characters, if necessary...
   *************   1976 BuildingSurface:Detailed,
   ************* indicated Name=diagonal-interior-wall-floor-6-space-1 Reversed
   ************* Only last 3 lines before error line shown.....
   *************   1977   diagonal-interior-wall-floor-6-space-1 Reversed, !- Name
   *************   1978   Wall,                                   !- Surface Type
   *************   1979   ,                                       !- Construction Name
   ** Severe  ** IP: IDF line~1979 Error detected in Object=BUILDINGSURFACE:DETAILED, name=DIAGONAL-INTERIOR-WALL-FLOOR-6-SPACE-1 REVERSED
   **   ~~~   ** Field [Construction Name] is required but was blank
   ************* IDF Context for following error/warning message:
   ************* Note -- lines truncated at 300 characters, if necessary...
   *************   1992 BuildingSurface:Detailed,
   ************* indicated Name=diagonal-interior-wall-floor-6-space-2 Reversed
   ************* Only last 3 lines before error line shown.....
   *************   1993   diagonal-interior-wall-floor-6-space-2 Reversed, !- Name
   *************   1994   Wall,                                   !- Surface Type
   *************   1995   ,                                       !- Construction Name
   ** Severe  ** IP: IDF line~1995 Error detected in Object=BUILDINGSURFACE:DETAILED, name=DIAGONAL-INTERIOR-WALL-FLOOR-6-SPACE-2 REVERSED
   **   ~~~   ** Field [Construction Name] is required but was blank
   ************* IDF Context for following error/warning message:
   ************* Note -- lines truncated at 300 characters, if necessary...
   *************   2008 BuildingSurface:Detailed,
   ************* indicated Name=diagonal-interior-wall-floor-6-space-3 Reversed
   ************* Only last 3 lines before error line shown.....
   *************   2009   diagonal-interior-wall-floor-6-space-3 Reversed, !- Name
   *************   2010   Wall,                                   !- Surface Type
   *************   2011   ,                                       !- Construction Name
   ** Severe  ** IP: IDF line~2011 Error detected in Object=BUILDINGSURFACE:DETAILED, name=DIAGONAL-INTERIOR-WALL-FLOOR-6-SPACE-3 REVERSED
   **   ~~~   ** Field [Construction Name] is required but was blank
   ************* IDF Context for following error/warning message:
   ************* Note -- lines truncated at 300 characters, if necessary...
   *************   2024 BuildingSurface:Detailed,
   ************* indicated Name=diagonal-interior-wall-floor-6-space-4 Reversed
   ************* Only last 3 lines before error line shown.....
   *************   2025   diagonal-interior-wall-floor-6-space-4 Reversed, !- Name
   *************   2026   Wall,                                   !- Surface Type
   *************   2027   ,                                       !- Construction Name
   ** Severe  ** IP: IDF line~2027 Error detected in Object=BUILDINGSURFACE:DETAILED, name=DIAGONAL-INTERIOR-WALL-FLOOR-6-SPACE-4 REVERSED
   **   ~~~   ** Field [Construction Name] is required but was blank
   ************* IDF Context for following error/warning message:
   ************* Note -- lines truncated at 300 characters, if necessary...
   *************   2040 BuildingSurface:Detailed,
   ************* indicated Name=diagonal-interior-wall-floor-6-space-5 Reversed
   ************* Only last 3 lines before error line shown.....
   *************   2041   diagonal-interior-wall-floor-6-space-5 Reversed, !- Name
   *************   2042   Wall,                                   !- Surface Type
   *************   2043   ,                                       !- Construction Name
   ** Severe  ** IP: IDF line~2043 Error detected in Object=BUILDINGSURFACE:DETAILED, name=DIAGONAL-INTERIOR-WALL-FLOOR-6-SPACE-5 REVERSED
   **   ~~~   ** Field [Construction Name] is required but was blank
   ************* IDF Context for following error/warning message:
   ************* Note -- lines truncated at 300 characters, if necessary...
   *************   2056 BuildingSurface:Detailed,
   ************* indicated Name=diagonal-interior-wall-floor-6-space-6 Reversed
   ************* Only last 3 lines before error line shown.....
   *************   2057   diagonal-interior-wall-floor-6-space-6 Reversed, !- Name
   *************   2058   Wall,                                   !- Surface Type
   *************   2059   ,                                       !- Construction Name
   ** Severe  ** IP: IDF line~2059 Error detected in Object=BUILDINGSURFACE:DETAILED, name=DIAGONAL-INTERIOR-WALL-FLOOR-6-SPACE-6 REVERSED
   **   ~~~   ** Field [Construction Name] is required but was blank
   ************* IDF Context for following error/warning message:
   ************* Note -- lines truncated at 300 characters, if necessary...
   *************   2072 BuildingSurface:Detailed,
   ************* indicated Name=diagonal-interior-wall-floor-6-space-7 Reversed
   ************* Only last 3 lines before error line shown.....
   *************   2073   diagonal-interior-wall-floor-6-space-7 Reversed, !- Name
   *************   2074   Wall,                                   !- Surface Type
   *************   2075   ,                                       !- Construction Name
   ** Severe  ** IP: IDF line~2075 Error detected in Object=BUILDINGSURFACE:DETAILED, name=DIAGONAL-INTERIOR-WALL-FLOOR-6-SPACE-7 REVERSED
   **   ~~~   ** Field [Construction Name] is required but was blank
   ************* IDF Context for following error/warning message:
   ************* Note -- lines truncated at 300 characters, if necessary...
   *************   2088 BuildingSurface:Detailed,
   ************* indicated Name=diagonal-interior-wall-floor-6-space-8 Reversed
   ************* Only last 3 lines before error line shown.....
   *************   2089   diagonal-interior-wall-floor-6-space-8 Reversed, !- Name
   *************   2090   Wall,                                   !- Surface Type
   *************   2091   ,                                       !- Construction Name
   ** Severe  ** IP: IDF line~2091 Error detected in Object=BUILDINGSURFACE:DETAILED, name=DIAGONAL-INTERIOR-WALL-FLOOR-6-SPACE-8 REVERSED
   **   ~~~   ** Field [Construction Name] is required but was blank
   ************* IDF Context for following error/warning message:
   ************* Note -- lines truncated at 300 characters, if necessary...
   *************   2104 BuildingSurface:Detailed,
   ************* indicated Name=diagonal-interior-wall-floor-7-space-1 Reversed
   ************* Only last 3 lines before error line shown.....
   *************   2105   diagonal-interior-wall-floor-7-space-1 Reversed, !- Name
   *************   2106   Wall,                                   !- Surface Type
   *************   2107   ,                                       !- Construction Name
   ** Severe  ** IP: IDF line~2107 Error detected in Object=BUILDINGSURFACE:DETAILED, name=DIAGONAL-INTERIOR-WALL-FLOOR-7-SPACE-1 REVERSED
   **   ~~~   ** Field [Construction Name] is required but was blank
   ************* IDF Context for following error/warning message:
   ************* Note -- lines truncated at 300 characters, if necessary...
   *************   2120 BuildingSurface:Detailed,
   ************* indicated Name=diagonal-interior-wall-floor-7-space-2 Reversed
   ************* Only last 3 lines before error line shown.....
   *************   2121   diagonal-interior-wall-floor-7-space-2 Reversed, !- Name
   *************   2122   Wall,                                   !- Surface Type
   *************   2123   ,                                       !- Construction Name
   ** Severe  ** IP: IDF line~2123 Error detected in Object=BUILDINGSURFACE:DETAILED, name=DIAGONAL-INTERIOR-WALL-FLOOR-7-SPACE-2 REVERSED
   **   ~~~   ** Field [Construction Name] is required but was blank
   ************* IDF Context for following error/warning message:
   ************* Note -- lines truncated at 300 characters, if necessary...
   *************   2136 BuildingSurface:Detailed,
   ************* indicated Name=diagonal-interior-wall-floor-7-space-3 Reversed
   ************* Only last 3 lines before error line shown.....
   *************   2137   diagonal-interior-wall-floor-7-space-3 Reversed, !- Name
   *************   2138   Wall,                                   !- Surface Type
   *************   2139   ,                                       !- Construction Name
   ** Severe  ** IP: IDF line~2139 Error detected in Object=BUILDINGSURFACE:DETAILED, name=DIAGONAL-INTERIOR-WALL-FLOOR-7-SPACE-3 REVERSED
   **   ~~~   ** Field [Construction Name] is required but was blank
   ************* IDF Context for following error/warning message:
   ************* Note -- lines truncated at 300 characters, if necessary...
   *************   2152 BuildingSurface:Detailed,
   ************* indicated Name=diagonal-interior-wall-floor-7-space-4 Reversed
   ************* Only last 3 lines before error line shown.....
   *************   2153   diagonal-interior-wall-floor-7-space-4 Reversed, !- Name
   *************   2154   Wall,                                   !- Surface Type
   *************   2155   ,                                       !- Construction Name
   ** Severe  ** IP: IDF line~2155 Error detected in Object=BUILDINGSURFACE:DETAILED, name=DIAGONAL-INTERIOR-WALL-FLOOR-7-SPACE-4 REVERSED
   **   ~~~   ** Field [Construction Name] is required but was blank
   ************* IDF Context for following error/warning message:
   ************* Note -- lines truncated at 300 characters, if necessary...
   *************   2168 BuildingSurface:Detailed,
   ************* indicated Name=diagonal-interior-wall-floor-7-space-5 Reversed
   ************* Only last 3 lines before error line shown.....
   *************   2169   diagonal-interior-wall-floor-7-space-5 Reversed, !- Name
   *************   2170   Wall,                                   !- Surface Type
   *************   2171   ,                                       !- Construction Name
   ** Severe  ** IP: IDF line~2171 Error detected in Object=BUILDINGSURFACE:DETAILED, name=DIAGONAL-INTERIOR-WALL-FLOOR-7-SPACE-5 REVERSED
   **   ~~~   ** Field [Construction Name] is required but was blank
   ************* IDF Context for following error/warning message:
   ************* Note -- lines truncated at 300 characters, if necessary...
   *************   2184 BuildingSurface:Detailed,
   ************* indicated Name=diagonal-interior-wall-floor-7-space-6 Reversed
   ************* Only last 3 lines before error line shown.....
   *************   2185   diagonal-interior-wall-floor-7-space-6 Reversed, !- Name
   *************   2186   Wall,                                   !- Surface Type
   *************   2187   ,                                       !- Construction Name
   ** Severe  ** IP: IDF line~2187 Error detected in Object=BUILDINGSURFACE:DETAILED, name=DIAGONAL-INTERIOR-WALL-FLOOR-7-SPACE-6 REVERSED
   **   ~~~   ** Field [Construction Name] is required but was blank
   ************* IDF Context for following error/warning message:
   ************* Note -- lines truncated at 300 characters, if necessary...
   *************   2200 BuildingSurface:Detailed,
   ************* indicated Name=diagonal-interior-wall-floor-7-space-7 Reversed
   ************* Only last 3 lines before error line shown.....
   *************   2201   diagonal-interior-wall-floor-7-space-7 Reversed, !- Name
   *************   2202   Wall,                                   !- Surface Type
   *************   2203   ,                                       !- Construction Name
   ** Severe  ** IP: IDF line~2203 Error detected in Object=BUILDINGSURFACE:DETAILED, name=DIAGONAL-INTERIOR-WALL-FLOOR-7-SPACE-7 REVERSED
   **   ~~~   ** Field [Construction Name] is required but was blank
   ************* IDF Context for following error/warning message:
   ************* Note -- lines truncated at 300 characters, if necessary...
   *************   2216 BuildingSurface:Detailed,
   ************* indicated Name=diagonal-interior-wall-floor-7-space-8 Reversed
   ************* Only last 3 lines before error line shown.....
   *************   2217   diagonal-interior-wall-floor-7-space-8 Reversed, !- Name
   *************   2218   Wall,                                   !- Surface Type
   *************   2219   ,                                       !- Construction Name
   ** Severe  ** IP: IDF line~2219 Error detected in Object=BUILDINGSURFACE:DETAILED, name=DIAGONAL-INTERIOR-WALL-FLOOR-7-SPACE-8 REVERSED
   **   ~~~   ** Field [Construction Name] is required but was blank
   ************* IDF Context for following error/warning message:
   ************* Note -- lines truncated at 300 characters, if necessary...
   *************   2232 BuildingSurface:Detailed,
   ************* indicated Name=diagonal-interior-wall-floor-8-space-1 Reversed
   ************* Only last 3 lines before error line shown.....
   *************   2233   diagonal-interior-wall-floor-8-space-1 Reversed, !- Name
   *************   2234   Wall,                                   !- Surface Type
   *************   2235   ,                                       !- Construction Name
   ** Severe  ** IP: IDF line~2235 Error detected in Object=BUILDINGSURFACE:DETAILED, name=DIAGONAL-INTERIOR-WALL-FLOOR-8-SPACE-1 REVERSED
   **   ~~~   ** Field [Construction Name] is required but was blank
   ************* IDF Context for following error/warning message:
   ************* Note -- lines truncated at 300 characters, if necessary...
   *************   2248 BuildingSurface:Detailed,
   ************* indicated Name=diagonal-interior-wall-floor-8-space-2 Reversed
   ************* Only last 3 lines before error line shown.....
   *************   2249   diagonal-interior-wall-floor-8-space-2 Reversed, !- Name
   *************   2250   Wall,                                   !- Surface Type
   *************   2251   ,                                       !- Construction Name
   ** Severe  ** IP: IDF line~2251 Error detected in Object=BUILDINGSURFACE:DETAILED, name=DIAGONAL-INTERIOR-WALL-FLOOR-8-SPACE-2 REVERSED
   **   ~~~   ** Field [Construction Name] is required but was blank
   ************* IDF Context for following error/warning message:
   ************* Note -- lines truncated at 300 characters, if necessary...
   *************   2264 BuildingSurface:Detailed,
   ************* indicated Name=diagonal-interior-wall-floor-8-space-3 Reversed
   ************* Only last 3 lines before error line shown.....
   *************   2265   diagonal-interior-wall-floor-8-space-3 Reversed, !- Name
   *************   2266   Wall,                                   !- Surface Type
   *************   2267   ,                                       !- Construction Name
   ** Severe  ** IP: IDF line~2267 Error detected in Object=BUILDINGSURFACE:DETAILED, name=DIAGONAL-INTERIOR-WALL-FLOOR-8-SPACE-3 REVERSED
   **   ~~~   ** Field [Construction Name] is required but was blank
   ************* IDF Context for following error/warning message:
   ************* Note -- lines truncated at 300 characters, if necessary...
   *************   2280 BuildingSurface:Detailed,
   ************* indicated Name=diagonal-interior-wall-floor-8-space-4 Reversed
   ************* Only last 3 lines before error line shown.....
   *************   2281   diagonal-interior-wall-floor-8-space-4 Reversed, !- Name
   *************   2282   Wall,                                   !- Surface Type
   *************   2283   ,                                       !- Construction Name
   ** Severe  ** IP: IDF line~2283 Error detected in Object=BUILDINGSURFACE:DETAILED, name=DIAGONAL-INTERIOR-WALL-FLOOR-8-SPACE-4 REVERSED
   **   ~~~   ** Field [Construction Name] is required but was blank
   ************* IDF Context for following error/warning message:
   ************* Note -- lines truncated at 300 characters, if necessary...
   *************   2296 BuildingSurface:Detailed,
   ************* indicated Name=diagonal-interior-wall-floor-8-space-5 Reversed
   ************* Only last 3 lines before error line shown.....
   *************   2297   diagonal-interior-wall-floor-8-space-5 Reversed, !- Name
   *************   2298   Wall,                                   !- Surface Type
   *************   2299   ,                                       !- Construction Name
   ** Severe  ** IP: IDF line~2299 Error detected in Object=BUILDINGSURFACE:DETAILED, name=DIAGONAL-INTERIOR-WALL-FLOOR-8-SPACE-5 REVERSED
   **   ~~~   ** Field [Construction Name] is required but was blank
   ************* IDF Context for following error/warning message:
   ************* Note -- lines truncated at 300 characters, if necessary...
   *************   2312 BuildingSurface:Detailed,
   ************* indicated Name=diagonal-interior-wall-floor-8-space-6 Reversed
   ************* Only last 3 lines before error line shown.....
   *************   2313   diagonal-interior-wall-floor-8-space-6 Reversed, !- Name
   *************   2314   Wall,                                   !- Surface Type
   *************   2315   ,                                       !- Construction Name
   ** Severe  ** IP: IDF line~2315 Error detected in Object=BUILDINGSURFACE:DETAILED, name=DIAGONAL-INTERIOR-WALL-FLOOR-8-SPACE-6 REVERSED
   **   ~~~   ** Field [Construction Name] is required but was blank
   ************* IDF Context for following error/warning message:
   ************* Note -- lines truncated at 300 characters, if necessary...
   *************   2328 BuildingSurface:Detailed,
   ************* indicated Name=diagonal-interior-wall-floor-8-space-7 Reversed
   ************* Only last 3 lines before error line shown.....
   *************   2329   diagonal-interior-wall-floor-8-space-7 Reversed, !- Name
   *************   2330   Wall,                                   !- Surface Type
   *************   2331   ,                                       !- Construction Name
   ** Severe  ** IP: IDF line~2331 Error detected in Object=BUILDINGSURFACE:DETAILED, name=DIAGONAL-INTERIOR-WALL-FLOOR-8-SPACE-7 REVERSED
   **   ~~~   ** Field [Construction Name] is required but was blank
   ************* IDF Context for following error/warning message:
   ************* Note -- lines truncated at 300 characters, if necessary...
   *************   2344 BuildingSurface:Detailed,
   ************* indicated Name=diagonal-interior-wall-floor-8-space-8 Reversed
   ************* Only last 3 lines before error line shown.....
   *************   2345   diagonal-interior-wall-floor-8-space-8 Reversed, !- Name
   *************   2346   Wall,                                   !- Surface Type
   *************   2347   ,                                       !- Construction Name
   ** Severe  ** IP: IDF line~2347 Error detected in Object=BUILDINGSURFACE:DETAILED, name=DIAGONAL-INTERIOR-WALL-FLOOR-8-SPACE-8 REVERSED
   **   ~~~   ** Field [Construction Name] is required but was blank
   ************* IDF Context for following error/warning message:
   ************* Note -- lines truncated at 300 characters, if necessary...
   *************   2360 BuildingSurface:Detailed,
   ************* indicated Name=diagonal-interior-wall-floor-9-space-1 Reversed
   ************* Only last 3 lines before error line shown.....
   *************   2361   diagonal-interior-wall-floor-9-space-1 Reversed, !- Name
   *************   2362   Wall,                                   !- Surface Type
   *************   2363   ,                                       !- Construction Name
   ** Severe  ** IP: IDF line~2363 Error detected in Object=BUILDINGSURFACE:DETAILED, name=DIAGONAL-INTERIOR-WALL-FLOOR-9-SPACE-1 REVERSED
   **   ~~~   ** Field [Construction Name] is required but was blank
   ************* IDF Context for following error/warning message:
   ************* Note -- lines truncated at 300 characters, if necessary...
   *************   2376 BuildingSurface:Detailed,
   ************* indicated Name=diagonal-interior-wall-floor-9-space-2 Reversed
   ************* Only last 3 lines before error line shown.....
   *************   2377   diagonal-interior-wall-floor-9-space-2 Reversed, !- Name
   *************   2378   Wall,                                   !- Surface Type
   *************   2379   ,                                       !- Construction Name
   ** Severe  ** IP: IDF line~2379 Error detected in Object=BUILDINGSURFACE:DETAILED, name=DIAGONAL-INTERIOR-WALL-FLOOR-9-SPACE-2 REVERSED
   **   ~~~   ** Field [Construction Name] is required but was blank
   ************* IDF Context for following error/warning message:
   ************* Note -- lines truncated at 300 characters, if necessary...
   *************   2392 BuildingSurface:Detailed,
   ************* indicated Name=diagonal-interior-wall-floor-9-space-3 Reversed
   ************* Only last 3 lines before error line shown.....
   *************   2393   diagonal-interior-wall-floor-9-space-3 Reversed, !- Name
   *************   2394   Wall,                                   !- Surface Type
   *************   2395   ,                                       !- Construction Name
   ** Severe  ** IP: IDF line~2395 Error detected in Object=BUILDINGSURFACE:DETAILED, name=DIAGONAL-INTERIOR-WALL-FLOOR-9-SPACE-3 REVERSED
   **   ~~~   ** Field [Construction Name] is required but was blank
   ************* IDF Context for following error/warning message:
   ************* Note -- lines truncated at 300 characters, if necessary...
   *************   2408 BuildingSurface:Detailed,
   ************* indicated Name=diagonal-interior-wall-floor-9-space-4 Reversed
   ************* Only last 3 lines before error line shown.....
   *************   2409   diagonal-interior-wall-floor-9-space-4 Reversed, !- Name
   *************   2410   Wall,                                   !- Surface Type
   *************   2411   ,                                       !- Construction Name
   ** Severe  ** IP: IDF line~2411 Error detected in Object=BUILDINGSURFACE:DETAILED, name=DIAGONAL-INTERIOR-WALL-FLOOR-9-SPACE-4 REVERSED
   **   ~~~   ** Field [Construction Name] is required but was blank
   ************* IDF Context for following error/warning message:
   ************* Note -- lines truncated at 300 characters, if necessary...
   *************   2424 BuildingSurface:Detailed,
   ************* indicated Name=diagonal-interior-wall-floor-9-space-5 Reversed
   ************* Only last 3 lines before error line shown.....
   *************   2425   diagonal-interior-wall-floor-9-space-5 Reversed, !- Name
   *************   2426   Wall,                                   !- Surface Type
   *************   2427   ,                                       !- Construction Name
   ** Severe  ** IP: IDF line~2427 Error detected in Object=BUILDINGSURFACE:DETAILED, name=DIAGONAL-INTERIOR-WALL-FLOOR-9-SPACE-5 REVERSED
   **   ~~~   ** Field [Construction Name] is required but was blank
   ************* IDF Context for following error/warning message:
   ************* Note -- lines truncated at 300 characters, if necessary...
   *************   2440 BuildingSurface:Detailed,
   ************* indicated Name=diagonal-interior-wall-floor-9-space-6 Reversed
   ************* Only last 3 lines before error line shown.....
   *************   2441   diagonal-interior-wall-floor-9-space-6 Reversed, !- Name
   *************   2442   Wall,                                   !- Surface Type
   *************   2443   ,                                       !- Construction Name
   ** Severe  ** IP: IDF line~2443 Error detected in Object=BUILDINGSURFACE:DETAILED, name=DIAGONAL-INTERIOR-WALL-FLOOR-9-SPACE-6 REVERSED
   **   ~~~   ** Field [Construction Name] is required but was blank
   ************* IDF Context for following error/warning message:
   ************* Note -- lines truncated at 300 characters, if necessary...
   *************   2456 BuildingSurface:Detailed,
   ************* indicated Name=diagonal-interior-wall-floor-9-space-7 Reversed
   ************* Only last 3 lines before error line shown.....
   *************   2457   diagonal-interior-wall-floor-9-space-7 Reversed, !- Name
   *************   2458   Wall,                                   !- Surface Type
   *************   2459   ,                                       !- Construction Name
   ** Severe  ** IP: IDF line~2459 Error detected in Object=BUILDINGSURFACE:DETAILED, name=DIAGONAL-INTERIOR-WALL-FLOOR-9-SPACE-7 REVERSED
   **   ~~~   ** Field [Construction Name] is required but was blank
   ************* IDF Context for following error/warning message:
   ************* Note -- lines truncated at 300 characters, if necessary...
   *************   2472 BuildingSurface:Detailed,
   ************* indicated Name=diagonal-interior-wall-floor-9-space-8 Reversed
   ************* Only last 3 lines before error line shown.....
   *************   2473   diagonal-interior-wall-floor-9-space-8 Reversed, !- Name
   *************   2474   Wall,                                   !- Surface Type
   *************   2475   ,                                       !- Construction Name
   ** Severe  ** IP: IDF line~2475 Error detected in Object=BUILDINGSURFACE:DETAILED, name=DIAGONAL-INTERIOR-WALL-FLOOR-9-SPACE-8 REVERSED
   **   ~~~   ** Field [Construction Name] is required but was blank
   ************* IDF Context for following error/warning message:
   ************* Note -- lines truncated at 300 characters, if necessary...
   *************   2488 BuildingSurface:Detailed,
   ************* indicated Name=exterior-wall-floor-1-space-1
   ************* Only last 3 lines before error line shown.....
   *************   2489   exterior-wall-floor-1-space-1,          !- Name
   *************   2490   Wall,                                   !- Surface Type
   *************   2491   ,                                       !- Construction Name
   ** Severe  ** IP: IDF line~2491 Error detected in Object=BUILDINGSURFACE:DETAILED, name=EXTERIOR-WALL-FLOOR-1-SPACE-1
   **   ~~~   ** Field [Construction Name] is required but was blank
   ************* IDF Context for following error/warning message:
   ************* Note -- lines truncated at 300 characters, if necessary...
   *************   2504 FenestrationSurface:Detailed,
   ************* indicated Name=bw-opening-3
   ************* Only last 3 lines before error line shown.....
   *************   2505   bw-opening-3,                           !- Name
   *************   2506   Window,                                 !- Surface Type
   *************   2507   ,                                       !- Construction Name
   ** Severe  ** IP: IDF line~2507 Error detected in Object=FENESTRATIONSURFACE:DETAILED, name=BW-OPENING-3
   **   ~~~   ** Field [Construction Name] is required but was blank
   ************* IDF Context for following error/warning message:
   ************* Note -- lines truncated at 300 characters, if necessary...
   *************   2520 BuildingSurface:Detailed,
   ************* indicated Name=floor-1-space-1
   ************* Only last 3 lines before error line shown.....
   *************   2521   floor-1-space-1,                        !- Name
   *************   2522   Floor,                                  !- Surface Type
   *************   2523   ,                                       !- Construction Name
   ** Severe  ** IP: IDF line~2523 Error detected in Object=BUILDINGSURFACE:DETAILED, name=FLOOR-1-SPACE-1
   **   ~~~   ** Field [Construction Name] is required but was blank
   ************* IDF Context for following error/warning message:
   ************* Note -- lines truncated at 300 characters, if necessary...
   *************   2536 BuildingSurface:Detailed,
   ************* indicated Name=interior-wall-floor-1-space-1
   ************* Only last 3 lines before error line shown.....
   *************   2537   interior-wall-floor-1-space-1,          !- Name
   *************   2538   Wall,                                   !- Surface Type
   *************   2539   ,                                       !- Construction Name
   ** Severe  ** IP: IDF line~2539 Error detected in Object=BUILDINGSURFACE:DETAILED, name=INTERIOR-WALL-FLOOR-1-SPACE-1
   **   ~~~   ** Field [Construction Name] is required but was blank
   ************* IDF Context for following error/warning message:
   ************* Note -- lines truncated at 300 characters, if necessary...
   *************   2566 BuildingSurface:Detailed,
   ************* indicated Name=diagonal-interior-wall-floor-1-space-1 Reversed
   ************* Only last 3 lines before error line shown.....
   *************   2567   diagonal-interior-wall-floor-1-space-1 Reversed, !- Name
   *************   2568   Wall,                                   !- Surface Type
   *************   2569   ,                                       !- Construction Name
   ** Severe  ** IP: IDF line~2569 Error detected in Object=BUILDINGSURFACE:DETAILED, name=DIAGONAL-INTERIOR-WALL-FLOOR-1-SPACE-1 REVERSED
   **   ~~~   ** Field [Construction Name] is required but was blank
   ************* IDF Context for following error/warning message:
   ************* Note -- lines truncated at 300 characters, if necessary...
   *************   2582 BuildingSurface:Detailed,
   ************* indicated Name=diagonal-interior-wall-floor-1-space-2
   ************* Only last 3 lines before error line shown.....
   *************   2583   diagonal-interior-wall-floor-1-space-2, !- Name
   *************   2584   Wall,                                   !- Surface Type
   *************   2585   ,                                       !- Construction Name
   ** Severe  ** IP: IDF line~2585 Error detected in Object=BUILDINGSURFACE:DETAILED, name=DIAGONAL-INTERIOR-WALL-FLOOR-1-SPACE-2
   **   ~~~   ** Field [Construction Name] is required but was blank
   ************* IDF Context for following error/warning message:
   ************* Note -- lines truncated at 300 characters, if necessary...
   *************   2598 BuildingSurface:Detailed,
   ************* indicated Name=exterior-wall-floor-1-space-2
   ************* Only last 3 lines before error line shown.....
   *************   2599   exterior-wall-floor-1-space-2,          !- Name
   *************   2600   Wall,                                   !- Surface Type
   *************   2601   ,                                       !- Construction Name
   ** Severe  ** IP: IDF line~2601 Error detected in Object=BUILDINGSURFACE:DETAILED, name=EXTERIOR-WALL-FLOOR-1-SPACE-2
   **   ~~~   ** Field [Construction Name] is required but was blank
   ************* IDF Context for following error/warning message:
   ************* Note -- lines truncated at 300 characters, if necessary...
   *************   2614 FenestrationSurface:Detailed,
   ************* indicated Name=bw-opening-7
   ************* Only last 3 lines before error line shown.....
   *************   2615   bw-opening-7,                           !- Name
   *************   2616   Window,                                 !- Surface Type
   *************   2617   ,                                       !- Construction Name
   ** Severe  ** IP: IDF line~2617 Error detected in Object=FENESTRATIONSURFACE:DETAILED, name=BW-OPENING-7
   **   ~~~   ** Field [Construction Name] is required but was blank
   ************* IDF Context for following error/warning message:
   ************* Note -- lines truncated at 300 characters, if necessary...
   *************   2630 BuildingSurface:Detailed,
   ************* indicated Name=floor-1-space-2
   ************* Only last 3 lines before error line shown.....
   *************   2631   floor-1-space-2,                        !- Name
   *************   2632   Floor,                                  !- Surface Type
   *************   2633   ,                                       !- Construction Name
   ** Severe  ** IP: IDF line~2633 Error detected in Object=BUILDINGSURFACE:DETAILED, name=FLOOR-1-SPACE-2
   **   ~~~   ** Field [Construction Name] is required but was blank
   ************* IDF Context for following error/warning message:
   ************* Note -- lines truncated at 300 characters, if necessary...
   *************   2646 BuildingSurface:Detailed,
   ************* indicated Name=interior-wall-floor-1-space-2
   ************* Only last 3 lines before error line shown.....
   *************   2647   interior-wall-floor-1-space-2,          !- Name
   *************   2648   Wall,                                   !- Surface Type
   *************   2649   ,                                       !- Construction Name
   ** Severe  ** IP: IDF line~2649 Error detected in Object=BUILDINGSURFACE:DETAILED, name=INTERIOR-WALL-FLOOR-1-SPACE-2
   **   ~~~   ** Field [Construction Name] is required but was blank
   ************* IDF Context for following error/warning message:
   ************* Note -- lines truncated at 300 characters, if necessary...
   *************   2676 BuildingSurface:Detailed,
   ************* indicated Name=diagonal-interior-wall-floor-1-space-2 Reversed
   ************* Only last 3 lines before error line shown.....
   *************   2677   diagonal-interior-wall-floor-1-space-2 Reversed, !- Name
   *************   2678   Wall,                                   !- Surface Type
   *************   2679   ,                                       !- Construction Name
   ** Severe  ** IP: IDF line~2679 Error detected in Object=BUILDINGSURFACE:DETAILED, name=DIAGONAL-INTERIOR-WALL-FLOOR-1-SPACE-2 REVERSED
   **   ~~~   ** Field [Construction Name] is required but was blank
   ************* IDF Context for following error/warning message:
   ************* Note -- lines truncated at 300 characters, if necessary...
   *************   2692 BuildingSurface:Detailed,
   ************* indicated Name=diagonal-interior-wall-floor-1-space-3
   ************* Only last 3 lines before error line shown.....
   *************   2693   diagonal-interior-wall-floor-1-space-3, !- Name
   *************   2694   Wall,                                   !- Surface Type
   *************   2695   ,                                       !- Construction Name
   ** Severe  ** IP: IDF line~2695 Error detected in Object=BUILDINGSURFACE:DETAILED, name=DIAGONAL-INTERIOR-WALL-FLOOR-1-SPACE-3
   **   ~~~   ** Field [Construction Name] is required but was blank
   ************* IDF Context for following error/warning message:
   ************* Note -- lines truncated at 300 characters, if necessary...
   *************   2708 BuildingSurface:Detailed,
   ************* indicated Name=exterior-wall-floor-1-space-3
   ************* Only last 3 lines before error line shown.....
   *************   2709   exterior-wall-floor-1-space-3,          !- Name
   *************   2710   Wall,                                   !- Surface Type
   *************   2711   ,                                       !- Construction Name
   ** Severe  ** IP: IDF line~2711 Error detected in Object=BUILDINGSURFACE:DETAILED, name=EXTERIOR-WALL-FLOOR-1-SPACE-3
   **   ~~~   ** Field [Construction Name] is required but was blank
   ************* IDF Context for following error/warning message:
   ************* Note -- lines truncated at 300 characters, if necessary...
   *************   2724 FenestrationSurface:Detailed,
   ************* indicated Name=bw-opening-11
   ************* Only last 3 lines before error line shown.....
   *************   2725   bw-opening-11,                          !- Name
   *************   2726   Window,                                 !- Surface Type
   *************   2727   ,                                       !- Construction Name
   ** Severe  ** IP: IDF line~2727 Error detected in Object=FENESTRATIONSURFACE:DETAILED, name=BW-OPENING-11
   **   ~~~   ** Field [Construction Name] is required but was blank
   ************* IDF Context for following error/warning message:
   ************* Note -- lines truncated at 300 characters, if necessary...
   *************   2740 BuildingSurface:Detailed,
   ************* indicated Name=floor-1-space-3
   ************* Only last 3 lines before error line shown.....
   *************   2741   floor-1-space-3,                        !- Name
   *************   2742   Floor,                                  !- Surface Type
   *************   2743   ,                                       !- Construction Name
   ** Severe  ** IP: IDF line~2743 Error detected in Object=BUILDINGSURFACE:DETAILED, name=FLOOR-1-SPACE-3
   **   ~~~   ** Field [Construction Name] is required but was blank
   ************* IDF Context for following error/warning message:
   ************* Note -- lines truncated at 300 characters, if necessary...
   *************   2756 BuildingSurface:Detailed,
   ************* indicated Name=interior-wall-floor-1-space-3
   ************* Only last 3 lines before error line shown.....
   *************   2757   interior-wall-floor-1-space-3,          !- Name
   *************   2758   Wall,                                   !- Surface Type
   *************   2759   ,                                       !- Construction Name
   ** Severe  ** IP: IDF line~2759 Error detected in Object=BUILDINGSURFACE:DETAILED, name=INTERIOR-WALL-FLOOR-1-SPACE-3
   **   ~~~   ** Field [Construction Name] is required but was blank
   ************* IDF Context for following error/warning message:
   ************* Note -- lines truncated at 300 characters, if necessary...
   *************   2786 BuildingSurface:Detailed,
   ************* indicated Name=diagonal-interior-wall-floor-1-space-3 Reversed
   ************* Only last 3 lines before error line shown.....
   *************   2787   diagonal-interior-wall-floor-1-space-3 Reversed, !- Name
   *************   2788   Wall,                                   !- Surface Type
   *************   2789   ,                                       !- Construction Name
   ** Severe  ** IP: IDF line~2789 Error detected in Object=BUILDINGSURFACE:DETAILED, name=DIAGONAL-INTERIOR-WALL-FLOOR-1-SPACE-3 REVERSED
   **   ~~~   ** Field [Construction Name] is required but was blank
   ************* IDF Context for following error/warning message:
   ************* Note -- lines truncated at 300 characters, if necessary...
   *************   2802 BuildingSurface:Detailed,
   ************* indicated Name=diagonal-interior-wall-floor-1-space-4
   ************* Only last 3 lines before error line shown.....
   *************   2803   diagonal-interior-wall-floor-1-space-4, !- Name
   *************   2804   Wall,                                   !- Surface Type
   *************   2805   ,                                       !- Construction Name
   ** Severe  ** IP: IDF line~2805 Error detected in Object=BUILDINGSURFACE:DETAILED, name=DIAGONAL-INTERIOR-WALL-FLOOR-1-SPACE-4
   **   ~~~   ** Field [Construction Name] is required but was blank
   ************* IDF Context for following error/warning message:
   ************* Note -- lines truncated at 300 characters, if necessary...
   *************   2818 BuildingSurface:Detailed,
   ************* indicated Name=exterior-wall-floor-1-space-4
   ************* Only last 3 lines before error line shown.....
   *************   2819   exterior-wall-floor-1-space-4,          !- Name
   *************   2820   Wall,                                   !- Surface Type
   *************   2821   ,                                       !- Construction Name
   ** Severe  ** IP: IDF line~2821 Error detected in Object=BUILDINGSURFACE:DETAILED, name=EXTERIOR-WALL-FLOOR-1-SPACE-4
   **   ~~~   ** Field [Construction Name] is required but was blank
   ************* IDF Context for following error/warning message:
   ************* Note -- lines truncated at 300 characters, if necessary...
   *************   2834 FenestrationSurface:Detailed,
   ************* indicated Name=bw-opening-15
   ************* Only last 3 lines before error line shown.....
   *************   2835   bw-opening-15,                          !- Name
   *************   2836   Window,                                 !- Surface Type
   *************   2837   ,                                       !- Construction Name
   ** Severe  ** IP: IDF line~2837 Error detected in Object=FENESTRATIONSURFACE:DETAILED, name=BW-OPENING-15
   **   ~~~   ** Field [Construction Name] is required but was blank
   ************* IDF Context for following error/warning message:
   ************* Note -- lines truncated at 300 characters, if necessary...
   *************   2850 BuildingSurface:Detailed,
   ************* indicated Name=floor-1-space-4
   ************* Only last 3 lines before error line shown.....
   *************   2851   floor-1-space-4,                        !- Name
   *************   2852   Floor,                                  !- Surface Type
   *************   2853   ,                                       !- Construction Name
   ** Severe  ** IP: IDF line~2853 Error detected in Object=BUILDINGSURFACE:DETAILED, name=FLOOR-1-SPACE-4
   **   ~~~   ** Field [Construction Name] is required but was blank
   ************* IDF Context for following error/warning message:
   ************* Note -- lines truncated at 300 characters, if necessary...
   *************   2866 BuildingSurface:Detailed,
   ************* indicated Name=interior-wall-floor-1-space-4
   ************* Only last 3 lines before error line shown.....
   *************   2867   interior-wall-floor-1-space-4,          !- Name
   *************   2868   Wall,                                   !- Surface Type
   *************   2869   ,                                       !- Construction Name
   ** Severe  ** IP: IDF line~2869 Error detected in Object=BUILDINGSURFACE:DETAILED, name=INTERIOR-WALL-FLOOR-1-SPACE-4
   **   ~~~   ** Field [Construction Name] is required but was blank
   ************* IDF Context for following error/warning message:
   ************* Note -- lines truncated at 300 characters, if necessary...
   *************   2896 BuildingSurface:Detailed,
   ************* indicated Name=diagonal-interior-wall-floor-1-space-4 Reversed
   ************* Only last 3 lines before error line shown.....
   *************   2897   diagonal-interior-wall-floor-1-space-4 Reversed, !- Name
   *************   2898   Wall,                                   !- Surface Type
   *************   2899   ,                                       !- Construction Name
   ** Severe  ** IP: IDF line~2899 Error detected in Object=BUILDINGSURFACE:DETAILED, name=DIAGONAL-INTERIOR-WALL-FLOOR-1-SPACE-4 REVERSED
   **   ~~~   ** Field [Construction Name] is required but was blank
   ************* IDF Context for following error/warning message:
   ************* Note -- lines truncated at 300 characters, if necessary...
   *************   2912 BuildingSurface:Detailed,
   ************* indicated Name=diagonal-interior-wall-floor-1-space-5
   ************* Only last 3 lines before error line shown.....
   *************   2913   diagonal-interior-wall-floor-1-space-5, !- Name
   *************   2914   Wall,                                   !- Surface Type
   *************   2915   ,                                       !- Construction Name
   ** Severe  ** IP: IDF line~2915 Error detected in Object=BUILDINGSURFACE:DETAILED, name=DIAGONAL-INTERIOR-WALL-FLOOR-1-SPACE-5
   **   ~~~   ** Field [Construction Name] is required but was blank
   ************* IDF Context for following error/warning message:
   ************* Note -- lines truncated at 300 characters, if necessary...
   *************   2928 BuildingSurface:Detailed,
   ************* indicated Name=exterior-wall-floor-1-space-5
   ************* Only last 3 lines before error line shown.....
   *************   2929   exterior-wall-floor-1-space-5,          !- Name
   *************   2930   Wall,                                   !- Surface Type
   *************   2931   ,                                       !- Construction Name
   ** Severe  ** IP: IDF line~2931 Error detected in Object=BUILDINGSURFACE:DETAILED, name=EXTERIOR-WALL-FLOOR-1-SPACE-5
   **   ~~~   ** Field [Construction Name] is required but was blank
   ************* IDF Context for following error/warning message:
   ************* Note -- lines truncated at 300 characters, if necessary...
   *************   2944 FenestrationSurface:Detailed,
   ************* indicated Name=bw-opening-19
   ************* Only last 3 lines before error line shown.....
   *************   2945   bw-opening-19,                          !- Name
   *************   2946   Window,                                 !- Surface Type
   *************   2947   ,                                       !- Construction Name
   ** Severe  ** IP: IDF line~2947 Error detected in Object=FENESTRATIONSURFACE:DETAILED, name=BW-OPENING-19
   **   ~~~   ** Field [Construction Name] is required but was blank
   ************* IDF Context for following error/warning message:
   ************* Note -- lines truncated at 300 characters, if necessary...
   *************   2960 BuildingSurface:Detailed,
   ************* indicated Name=floor-1-space-5
   ************* Only last 3 lines before error line shown.....
   *************   2961   floor-1-space-5,                        !- Name
   *************   2962   Floor,                                  !- Surface Type
   *************   2963   ,                                       !- Construction Name
   ** Severe  ** IP: IDF line~2963 Error detected in Object=BUILDINGSURFACE:DETAILED, name=FLOOR-1-SPACE-5
   **   ~~~   ** Field [Construction Name] is required but was blank
   ************* IDF Context for following error/warning message:
   ************* Note -- lines truncated at 300 characters, if necessary...
   *************   2976 BuildingSurface:Detailed,
   ************* indicated Name=interior-wall-floor-1-space-5
   ************* Only last 3 lines before error line shown.....
   *************   2977   interior-wall-floor-1-space-5,          !- Name
   *************   2978   Wall,                                   !- Surface Type
   *************   2979   ,                                       !- Construction Name
   ** Severe  ** IP: IDF line~2979 Error detected in Object=BUILDINGSURFACE:DETAILED, name=INTERIOR-WALL-FLOOR-1-SPACE-5
[...]
   *************  11338   Wall,                                   !- Surface Type
   *************  11339   ,                                       !- Construction Name
   ** Severe  ** IP: IDF line~11339 Error detected in Object=BUILDINGSURFACE:DETAILED, name=DIAGONAL-INTERIOR-WALL-FLOOR-9-SPACE-4
   **   ~~~   ** Field [Construction Name] is required but was blank
   ************* IDF Context for following error/warning message:
   ************* Note -- lines truncated at 300 characters, if necessary...
   *************  11352 BuildingSurface:Detailed,
   ************* indicated Name=exterior-wall-floor-9-space-4
   ************* Only last 3 lines before error line shown.....
   *************  11353   exterior-wall-floor-9-space-4,          !- Name
   *************  11354   Wall,                                   !- Surface Type
   *************  11355   ,                                       !- Construction Name
   ** Severe  ** IP: IDF line~11355 Error detected in Object=BUILDINGSURFACE:DETAILED, name=EXTERIOR-WALL-FLOOR-9-SPACE-4
   **   ~~~   ** Field [Construction Name] is required but was blank
   ************* IDF Context for following error/warning message:
   ************* Note -- lines truncated at 300 characters, if necessary...
   *************  11368 FenestrationSurface:Detailed,
   ************* indicated Name=bw-opening-287
   ************* Only last 3 lines before error line shown.....
   *************  11369   bw-opening-287,                         !- Name
   *************  11370   Window,                                 !- Surface Type
   *************  11371   ,                                       !- Construction Name
   ** Severe  ** IP: IDF line~11371 Error detected in Object=FENESTRATIONSURFACE:DETAILED, name=BW-OPENING-287
   **   ~~~   ** Field [Construction Name] is required but was blank
   ************* IDF Context for following error/warning message:
   ************* Note -- lines truncated at 300 characters, if necessary...
   *************  11384 BuildingSurface:Detailed,
   ************* indicated Name=floor-9-space-4
   ************* Only last 3 lines before error line shown.....
   *************  11385   floor-9-space-4,                        !- Name
   *************  11386   Floor,                                  !- Surface Type
   *************  11387   ,                                       !- Construction Name
   ** Severe  ** IP: IDF line~11387 Error detected in Object=BUILDINGSURFACE:DETAILED, name=FLOOR-9-SPACE-4
   **   ~~~   ** Field [Construction Name] is required but was blank
   ************* IDF Context for following error/warning message:
   ************* Note -- lines truncated at 300 characters, if necessary...
   *************  11400 BuildingSurface:Detailed,
   ************* indicated Name=interior-wall-floor-9-space-4
   ************* Only last 3 lines before error line shown.....
   *************  11401   interior-wall-floor-9-space-4,          !- Name
   *************  11402   Wall,                                   !- Surface Type
   *************  11403   ,                                       !- Construction Name
   ** Severe  ** IP: IDF line~11403 Error detected in Object=BUILDINGSURFACE:DETAILED, name=INTERIOR-WALL-FLOOR-9-SPACE-4
   **   ~~~   ** Field [Construction Name] is required but was blank
   ************* IDF Context for following error/warning message:
   ************* Note -- lines truncated at 300 characters, if necessary...
   *************  11430 BuildingSurface:Detailed,
   ************* indicated Name=diagonal-interior-wall-floor-9-space-5
   ************* Only last 3 lines before error line shown.....
   *************  11431   diagonal-interior-wall-floor-9-space-5, !- Name
   *************  11432   Wall,                                   !- Surface Type
   *************  11433   ,                                       !- Construction Name
   ** Severe  ** IP: IDF line~11433 Error detected in Object=BUILDINGSURFACE:DETAILED, name=DIAGONAL-INTERIOR-WALL-FLOOR-9-SPACE-5
   **   ~~~   ** Field [Construction Name] is required but was blank
   ************* IDF Context for following error/warning message:
   ************* Note -- lines truncated at 300 characters, if necessary...
   *************  11446 BuildingSurface:Detailed,
   ************* indicated Name=exterior-wall-floor-9-space-5
   ************* Only last 3 lines before error line shown.....
   *************  11447   exterior-wall-floor-9-space-5,          !- Name
   *************  11448   Wall,                                   !- Surface Type
   *************  11449   ,                                       !- Construction Name
   ** Severe  ** IP: IDF line~11449 Error detected in Object=BUILDINGSURFACE:DETAILED, name=EXTERIOR-WALL-FLOOR-9-SPACE-5
   **   ~~~   ** Field [Construction Name] is required but was blank
   ************* IDF Context for following error/warning message:
   ************* Note -- lines truncated at 300 characters, if necessary...
   *************  11462 FenestrationSurface:Detailed,
   ************* indicated Name=bw-opening-291
   ************* Only last 3 lines before error line shown.....
   *************  11463   bw-opening-291,                         !- Name
   *************  11464   Window,                                 !- Surface Type
   *************  11465   ,                                       !- Construction Name
   ** Severe  ** IP: IDF line~11465 Error detected in Object=FENESTRATIONSURFACE:DETAILED, name=BW-OPENING-291
   **   ~~~   ** Field [Construction Name] is required but was blank
   ************* IDF Context for following error/warning message:
   ************* Note -- lines truncated at 300 characters, if necessary...
   *************  11478 BuildingSurface:Detailed,
   ************* indicated Name=floor-9-space-5
   ************* Only last 3 lines before error line shown.....
   *************  11479   floor-9-space-5,                        !- Name
   *************  11480   Floor,                                  !- Surface Type
   *************  11481   ,                                       !- Construction Name
   ** Severe  ** IP: IDF line~11481 Error detected in Object=BUILDINGSURFACE:DETAILED, name=FLOOR-9-SPACE-5
   **   ~~~   ** Field [Construction Name] is required but was blank
   ************* IDF Context for following error/warning message:
   ************* Note -- lines truncated at 300 characters, if necessary...
   *************  11494 BuildingSurface:Detailed,
   ************* indicated Name=interior-wall-floor-9-space-5
   ************* Only last 3 lines before error line shown.....
   *************  11495   interior-wall-floor-9-space-5,          !- Name
   *************  11496   Wall,                                   !- Surface Type
   *************  11497   ,                                       !- Construction Name
   ** Severe  ** IP: IDF line~11497 Error detected in Object=BUILDINGSURFACE:DETAILED, name=INTERIOR-WALL-FLOOR-9-SPACE-5
   **   ~~~   ** Field [Construction Name] is required but was blank
   ************* IDF Context for following error/warning message:
   ************* Note -- lines truncated at 300 characters, if necessary...
   *************  11524 BuildingSurface:Detailed,
   ************* indicated Name=diagonal-interior-wall-floor-9-space-6
   ************* Only last 3 lines before error line shown.....
   *************  11525   diagonal-interior-wall-floor-9-space-6, !- Name
   *************  11526   Wall,                                   !- Surface Type
   *************  11527   ,                                       !- Construction Name
   ** Severe  ** IP: IDF line~11527 Error detected in Object=BUILDINGSURFACE:DETAILED, name=DIAGONAL-INTERIOR-WALL-FLOOR-9-SPACE-6
   **   ~~~   ** Field [Construction Name] is required but was blank
   ************* IDF Context for following error/warning message:
   ************* Note -- lines truncated at 300 characters, if necessary...
   *************  11540 BuildingSurface:Detailed,
   ************* indicated Name=exterior-wall-floor-9-space-6
   ************* Only last 3 lines before error line shown.....
   *************  11541   exterior-wall-floor-9-space-6,          !- Name
   *************  11542   Wall,                                   !- Surface Type
   *************  11543   ,                                       !- Construction Name
   ** Severe  ** IP: IDF line~11543 Error detected in Object=BUILDINGSURFACE:DETAILED, name=EXTERIOR-WALL-FLOOR-9-SPACE-6
   **   ~~~   ** Field [Construction Name] is required but was blank
   ************* IDF Context for following error/warning message:
   ************* Note -- lines truncated at 300 characters, if necessary...
   *************  11556 FenestrationSurface:Detailed,
   ************* indicated Name=bw-opening-295
   ************* Only last 3 lines before error line shown.....
   *************  11557   bw-opening-295,                         !- Name
   *************  11558   Window,                                 !- Surface Type
   *************  11559   ,                                       !- Construction Name
   ** Severe  ** IP: IDF line~11559 Error detected in Object=FENESTRATIONSURFACE:DETAILED, name=BW-OPENING-295
   **   ~~~   ** Field [Construction Name] is required but was blank
   ************* IDF Context for following error/warning message:
   ************* Note -- lines truncated at 300 characters, if necessary...
   *************  11572 BuildingSurface:Detailed,
   ************* indicated Name=floor-9-space-6
   ************* Only last 3 lines before error line shown.....
   *************  11573   floor-9-space-6,                        !- Name
   *************  11574   Floor,                                  !- Surface Type
   *************  11575   ,                                       !- Construction Name
   ** Severe  ** IP: IDF line~11575 Error detected in Object=BUILDINGSURFACE:DETAILED, name=FLOOR-9-SPACE-6
   **   ~~~   ** Field [Construction Name] is required but was blank
   ************* IDF Context for following error/warning message:
   ************* Note -- lines truncated at 300 characters, if necessary...
   *************  11588 BuildingSurface:Detailed,
   ************* indicated Name=interior-wall-floor-9-space-6
   ************* Only last 3 lines before error line shown.....
   *************  11589   interior-wall-floor-9-space-6,          !- Name
   *************  11590   Wall,                                   !- Surface Type
   *************  11591   ,                                       !- Construction Name
   ** Severe  ** IP: IDF line~11591 Error detected in Object=BUILDINGSURFACE:DETAILED, name=INTERIOR-WALL-FLOOR-9-SPACE-6
   **   ~~~   ** Field [Construction Name] is required but was blank
   ************* IDF Context for following error/warning message:
   ************* Note -- lines truncated at 300 characters, if necessary...
   *************  11618 BuildingSurface:Detailed,
   ************* indicated Name=diagonal-interior-wall-floor-9-space-7
   ************* Only last 3 lines before error line shown.....
   *************  11619   diagonal-interior-wall-floor-9-space-7, !- Name
   *************  11620   Wall,                                   !- Surface Type
   *************  11621   ,                                       !- Construction Name
   ** Severe  ** IP: IDF line~11621 Error detected in Object=BUILDINGSURFACE:DETAILED, name=DIAGONAL-INTERIOR-WALL-FLOOR-9-SPACE-7
   **   ~~~   ** Field [Construction Name] is required but was blank
   ************* IDF Context for following error/warning message:
   ************* Note -- lines truncated at 300 characters, if necessary...
   *************  11634 BuildingSurface:Detailed,
   ************* indicated Name=exterior-wall-floor-9-space-7
   ************* Only last 3 lines before error line shown.....
   *************  11635   exterior-wall-floor-9-space-7,          !- Name
   *************  11636   Wall,                                   !- Surface Type
   *************  11637   ,                                       !- Construction Name
   ** Severe  ** IP: IDF line~11637 Error detected in Object=BUILDINGSURFACE:DETAILED, name=EXTERIOR-WALL-FLOOR-9-SPACE-7
   **   ~~~   ** Field [Construction Name] is required but was blank
   ************* IDF Context for following error/warning message:
   ************* Note -- lines truncated at 300 characters, if necessary...
   *************  11650 FenestrationSurface:Detailed,
   ************* indicated Name=bw-opening-299
   ************* Only last 3 lines before error line shown.....
   *************  11651   bw-opening-299,                         !- Name
   *************  11652   Window,                                 !- Surface Type
   *************  11653   ,                                       !- Construction Name
   ** Severe  ** IP: IDF line~11653 Error detected in Object=FENESTRATIONSURFACE:DETAILED, name=BW-OPENING-299
   **   ~~~   ** Field [Construction Name] is required but was blank
   ************* IDF Context for following error/warning message:
   ************* Note -- lines truncated at 300 characters, if necessary...
   *************  11666 BuildingSurface:Detailed,
   ************* indicated Name=floor-9-space-7
   ************* Only last 3 lines before error line shown.....
   *************  11667   floor-9-space-7,                        !- Name
   *************  11668   Floor,                                  !- Surface Type
   *************  11669   ,                                       !- Construction Name
   ** Severe  ** IP: IDF line~11669 Error detected in Object=BUILDINGSURFACE:DETAILED, name=FLOOR-9-SPACE-7
   **   ~~~   ** Field [Construction Name] is required but was blank
   ************* IDF Context for following error/warning message:
   ************* Note -- lines truncated at 300 characters, if necessary...
   *************  11682 BuildingSurface:Detailed,
   ************* indicated Name=interior-wall-floor-9-space-7
   ************* Only last 3 lines before error line shown.....
   *************  11683   interior-wall-floor-9-space-7,          !- Name
   *************  11684   Wall,                                   !- Surface Type
   *************  11685   ,                                       !- Construction Name
   ** Severe  ** IP: IDF line~11685 Error detected in Object=BUILDINGSURFACE:DETAILED, name=INTERIOR-WALL-FLOOR-9-SPACE-7
   **   ~~~   ** Field [Construction Name] is required but was blank
   ************* IDF Context for following error/warning message:
   ************* Note -- lines truncated at 300 characters, if necessary...
   *************  11712 BuildingSurface:Detailed,
   ************* indicated Name=diagonal-interior-wall-floor-9-space-8
   ************* Only last 3 lines before error line shown.....
   *************  11713   diagonal-interior-wall-floor-9-space-8, !- Name
   *************  11714   Wall,                                   !- Surface Type
   *************  11715   ,                                       !- Construction Name
   ** Severe  ** IP: IDF line~11715 Error detected in Object=BUILDINGSURFACE:DETAILED, name=DIAGONAL-INTERIOR-WALL-FLOOR-9-SPACE-8
   **   ~~~   ** Field [Construction Name] is required but was blank
   ************* IDF Context for following error/warning message:
   ************* Note -- lines truncated at 300 characters, if necessary...
   *************  11728 BuildingSurface:Detailed,
   ************* indicated Name=exterior-wall-floor-9-space-8
   ************* Only last 3 lines before error line shown.....
   *************  11729   exterior-wall-floor-9-space-8,          !- Name
   *************  11730   Wall,                                   !- Surface Type
   *************  11731   ,                                       !- Construction Name
   ** Severe  ** IP: IDF line~11731 Error detected in Object=BUILDINGSURFACE:DETAILED, name=EXTERIOR-WALL-FLOOR-9-SPACE-8
   **   ~~~   ** Field [Construction Name] is required but was blank
   ************* IDF Context for following error/warning message:
   ************* Note -- lines truncated at 300 characters, if necessary...
   *************  11744 FenestrationSurface:Detailed,
   ************* indicated Name=bw-opening-303
   ************* Only last 3 lines before error line shown.....
   *************  11745   bw-opening-303,                         !- Name
   *************  11746   Window,                                 !- Surface Type
   *************  11747   ,                                       !- Construction Name
   ** Severe  ** IP: IDF line~11747 Error detected in Object=FENESTRATIONSURFACE:DETAILED, name=BW-OPENING-303
   **   ~~~   ** Field [Construction Name] is required but was blank
   ************* IDF Context for following error/warning message:
   ************* Note -- lines truncated at 300 characters, if necessary...
   *************  11760 BuildingSurface:Detailed,
   ************* indicated Name=floor-9-space-8
   ************* Only last 3 lines before error line shown.....
   *************  11761   floor-9-space-8,                        !- Name
   *************  11762   Floor,                                  !- Surface Type
   *************  11763   ,                                       !- Construction Name
   ** Severe  ** IP: IDF line~11763 Error detected in Object=BUILDINGSURFACE:DETAILED, name=FLOOR-9-SPACE-8
   **   ~~~   ** Field [Construction Name] is required but was blank
   ************* IDF Context for following error/warning message:
   ************* Note -- lines truncated at 300 characters, if necessary...
   *************  11776 BuildingSurface:Detailed,
   ************* indicated Name=interior-wall-floor-9-space-8
   ************* Only last 3 lines before error line shown.....
   *************  11777   interior-wall-floor-9-space-8,          !- Name
   *************  11778   Wall,                                   !- Surface Type
   *************  11779   ,                                       !- Construction Name
   ** Severe  ** IP: IDF line~11779 Error detected in Object=BUILDINGSURFACE:DETAILED, name=INTERIOR-WALL-FLOOR-9-SPACE-8
   **   ~~~   ** Field [Construction Name] is required but was blank
   ************* IDF Context for following error/warning message:
   ************* Note -- lines truncated at 300 characters, if necessary...
   *************  11806 BuildingSurface:Detailed,
   ************* indicated Name=slab-floor-9
   ************* Only last 3 lines before error line shown.....
   *************  11807   slab-floor-9,                           !- Name
   *************  11808   Floor,                                  !- Surface Type
   *************  11809   ,                                       !- Construction Name
   ** Severe  ** IP: IDF line~11809 Error detected in Object=BUILDINGSURFACE:DETAILED, name=SLAB-FLOOR-9
   **   ~~~   ** Field [Construction Name] is required but was blank
   ** Severe  ** IP: Blank "required" fields found in input
   ** Severe  ** IP: Out of "range" values and/or blank required fields found in input
   **  Fatal  ** IP: Errors occurred on processing IDF file. Preceding condition(s) cause termination.
   ...Summary of Errors that led to program termination:
   ..... Reference severe error count=579
   ..... Last severe error=IP: Out of "range" values and/or blank required fields found in input
   ************* Warning:  Node connection errors not checked - most system input has not been read (see previous warning).
   ************* Fatal error -- final processing.  Program exited before simulations began.  See previous error messages.
   ************* EnergyPlus Warmup Error Summary. During Warmup: 0 Warning; 0 Severe Errors.
   ************* EnergyPlus Sizing Error Summary. During Sizing: 0 Warning; 0 Severe Errors.
   ************* EnergyPlus Terminated--Fatal Error Detected. 0 Warning; 579 Severe Errors; Elapsed Time=00hr 00min  0.42sec
